data_CONTCAR010
_audit_creation_date              2022-01-18
_audit_creation_method            'Materials Studio'
_symmetry_space_group_name_H-M    'P1'
_symmetry_Int_Tables_number       1
_symmetry_cell_setting            triclinic
loop_
_symmetry_equiv_pos_as_xyz
  x,y,z
_cell_length_a                    11.7659
_cell_length_b                    9.1541
_cell_length_c                    31.1363
_cell_angle_alpha                 89.9550
_cell_angle_beta                  90.0000
_cell_angle_gamma                 90.0000
loop_
_atom_site_label
_atom_site_type_symbol
_atom_site_fract_x
_atom_site_fract_y
_atom_site_fract_z
_atom_site_U_iso_or_equiv
_atom_site_adp_type
_atom_site_occupancy
Ti1    Ti    0.00000   0.40240   0.09716   0.00000  Uiso   1.00
Ti2    Ti    0.00000   0.40389   0.24850   0.00000  Uiso   1.00
Ti3    Ti    0.00000   0.40141   0.40026   0.00000  Uiso   1.00
Ti4    Ti    0.00000   0.39442   0.55143   0.00000  Uiso   1.00
Ti5    Ti    0.12500   0.15240   0.02728   0.00000  Uiso   1.00
Ti6    Ti    0.12500   0.15425   0.17332   0.00000  Uiso   1.00
Ti7    Ti    0.12500   0.15278   0.32536   0.00000  Uiso   1.00
Ti8    Ti    0.12500   0.14892   0.47803   0.00000  Uiso   1.00
Ti9    Ti    0.25000   0.40240   0.09716   0.00000  Uiso   1.00
Ti10   Ti    0.25000   0.40389   0.24850   0.00000  Uiso   1.00
Ti11   Ti    0.25000   0.40141   0.40026   0.00000  Uiso   1.00
Ti12   Ti    0.25000   0.39442   0.55143   0.00000  Uiso   1.00
Ti13   Ti    0.37500   0.15240   0.02728   0.00000  Uiso   1.00
Ti14   Ti    0.37500   0.15425   0.17332   0.00000  Uiso   1.00
Ti15   Ti    0.37500   0.15278   0.32536   0.00000  Uiso   1.00
Ti16   Ti    0.37500   0.14892   0.47803   0.00000  Uiso   1.00
Ti17   Ti    0.00000   0.90240   0.09716   0.00000  Uiso   1.00
Ti18   Ti    0.00000   0.90389   0.24850   0.00000  Uiso   1.00
Ti19   Ti    0.00000   0.90141   0.40026   0.00000  Uiso   1.00
Ti20   Ti    0.00000   0.89442   0.55143   0.00000  Uiso   1.00
Ti21   Ti    0.12500   0.65240   0.02728   0.00000  Uiso   1.00
Ti22   Ti    0.12500   0.65425   0.17332   0.00000  Uiso   1.00
Ti23   Ti    0.12500   0.65278   0.32536   0.00000  Uiso   1.00
Ti24   Ti    0.12500   0.64892   0.47803   0.00000  Uiso   1.00
Ti25   Ti    0.25000   0.90240   0.09716   0.00000  Uiso   1.00
Ti26   Ti    0.25000   0.90389   0.24850   0.00000  Uiso   1.00
Ti27   Ti    0.25000   0.90141   0.40026   0.00000  Uiso   1.00
Ti28   Ti    0.25000   0.89442   0.55143   0.00000  Uiso   1.00
Ti29   Ti    0.37500   0.65240   0.02728   0.00000  Uiso   1.00
Ti30   Ti    0.37500   0.65425   0.17332   0.00000  Uiso   1.00
Ti31   Ti    0.37500   0.65278   0.32536   0.00000  Uiso   1.00
Ti32   Ti    0.37500   0.64892   0.47803   0.00000  Uiso   1.00
Ti33   Ti    0.50000   0.40240   0.09716   0.00000  Uiso   1.00
Ti34   Ti    0.50000   0.40389   0.24850   0.00000  Uiso   1.00
Ti35   Ti    0.50000   0.40141   0.40026   0.00000  Uiso   1.00
Ti36   Ti    0.50000   0.39442   0.55143   0.00000  Uiso   1.00
Ti37   Ti    0.62500   0.15240   0.02728   0.00000  Uiso   1.00
Ti38   Ti    0.62500   0.15425   0.17332   0.00000  Uiso   1.00
Ti39   Ti    0.62500   0.15278   0.32536   0.00000  Uiso   1.00
Ti40   Ti    0.62500   0.14892   0.47803   0.00000  Uiso   1.00
Ti41   Ti    0.75000   0.40240   0.09716   0.00000  Uiso   1.00
Ti42   Ti    0.75000   0.40389   0.24850   0.00000  Uiso   1.00
Ti43   Ti    0.75000   0.40141   0.40026   0.00000  Uiso   1.00
Ti44   Ti    0.75000   0.39442   0.55143   0.00000  Uiso   1.00
Ti45   Ti    0.87500   0.15240   0.02728   0.00000  Uiso   1.00
Ti46   Ti    0.87500   0.15425   0.17332   0.00000  Uiso   1.00
Ti47   Ti    0.87500   0.15278   0.32536   0.00000  Uiso   1.00
Ti48   Ti    0.87500   0.14892   0.47803   0.00000  Uiso   1.00
Ti49   Ti    0.50000   0.90240   0.09716   0.00000  Uiso   1.00
Ti50   Ti    0.50000   0.90389   0.24850   0.00000  Uiso   1.00
Ti51   Ti    0.50000   0.90141   0.40026   0.00000  Uiso   1.00
Ti52   Ti    0.50000   0.89442   0.55143   0.00000  Uiso   1.00
Ti53   Ti    0.62500   0.65240   0.02728   0.00000  Uiso   1.00
Ti54   Ti    0.62500   0.65425   0.17332   0.00000  Uiso   1.00
Ti55   Ti    0.62500   0.65278   0.32536   0.00000  Uiso   1.00
Ti56   Ti    0.62500   0.64892   0.47803   0.00000  Uiso   1.00
Ti57   Ti    0.75000   0.90240   0.09716   0.00000  Uiso   1.00
Ti58   Ti    0.75000   0.90389   0.24850   0.00000  Uiso   1.00
Ti59   Ti    0.75000   0.90141   0.40026   0.00000  Uiso   1.00
Ti60   Ti    0.75000   0.89442   0.55143   0.00000  Uiso   1.00
Ti61   Ti    0.87500   0.65240   0.02728   0.00000  Uiso   1.00
Ti62   Ti    0.87500   0.65425   0.17332   0.00000  Uiso   1.00
Ti63   Ti    0.87500   0.65278   0.32536   0.00000  Uiso   1.00
Ti64   Ti    0.87500   0.64892   0.47803   0.00000  Uiso   1.00
O1     O     0.00000   0.05480   0.00000   0.00000  Uiso   1.00
O2     O     0.00000   0.05689   0.14491   0.00000  Uiso   1.00
O3     O     0.00000   0.05802   0.29643   0.00000  Uiso   1.00
O4     O     0.00000   0.05881   0.44909   0.00000  Uiso   1.00
O5     O     0.00000   0.25000   0.05456   0.00000  Uiso   1.00
O6     O     0.00000   0.26179   0.20141   0.00000  Uiso   1.00
O7     O     0.00000   0.26118   0.35360   0.00000  Uiso   1.00
O8     O     0.00000   0.26654   0.50558   0.00000  Uiso   1.00
O9     O     0.12500   0.00000   0.06988   0.00000  Uiso   1.00
O10    O     0.12500   0.01145   0.22042   0.00000  Uiso   1.00
O11    O     0.12500   0.01207   0.37228   0.00000  Uiso   1.00
O12    O     0.12500   0.02623   0.52609   0.00000  Uiso   1.00
O13    O     0.12500   0.30480   0.12444   0.00000  Uiso   1.00
O14    O     0.12500   0.30805   0.27745   0.00000  Uiso   1.00
O15    O     0.12500   0.30990   0.42944   0.00000  Uiso   1.00
O16    O     0.12500   0.33940   0.58362   0.00000  Uiso   1.00
O17    O     0.25000   0.05480   0.00000   0.00000  Uiso   1.00
O18    O     0.25000   0.05689   0.14491   0.00000  Uiso   1.00
O19    O     0.25000   0.05802   0.29643   0.00000  Uiso   1.00
O20    O     0.25000   0.05881   0.44909   0.00000  Uiso   1.00
O21    O     0.25000   0.25000   0.05456   0.00000  Uiso   1.00
O22    O     0.25000   0.26179   0.20141   0.00000  Uiso   1.00
O23    O     0.25000   0.26118   0.35360   0.00000  Uiso   1.00
O24    O     0.25000   0.26654   0.50558   0.00000  Uiso   1.00
O25    O     0.37500   0.00000   0.06988   0.00000  Uiso   1.00
O26    O     0.37500   0.01145   0.22042   0.00000  Uiso   1.00
O27    O     0.37500   0.01207   0.37228   0.00000  Uiso   1.00
O28    O     0.37500   0.02623   0.52609   0.00000  Uiso   1.00
O29    O     0.37500   0.30480   0.12444   0.00000  Uiso   1.00
O30    O     0.37500   0.30805   0.27745   0.00000  Uiso   1.00
O31    O     0.37500   0.30990   0.42944   0.00000  Uiso   1.00
O32    O     0.37500   0.33940   0.58362   0.00000  Uiso   1.00
O33    O     0.00000   0.55480   0.00000   0.00000  Uiso   1.00
O34    O     0.00000   0.55689   0.14491   0.00000  Uiso   1.00
O35    O     0.00000   0.55802   0.29643   0.00000  Uiso   1.00
O36    O     0.00000   0.55881   0.44909   0.00000  Uiso   1.00
O37    O     0.00000   0.75000   0.05456   0.00000  Uiso   1.00
O38    O     0.00000   0.76179   0.20141   0.00000  Uiso   1.00
O39    O     0.00000   0.76118   0.35360   0.00000  Uiso   1.00
O40    O     0.00000   0.76654   0.50558   0.00000  Uiso   1.00
O41    O     0.12500   0.50000   0.06988   0.00000  Uiso   1.00
O42    O     0.12500   0.51145   0.22042   0.00000  Uiso   1.00
O43    O     0.12500   0.51207   0.37228   0.00000  Uiso   1.00
O44    O     0.12500   0.52623   0.52609   0.00000  Uiso   1.00
O45    O     0.12500   0.80480   0.12444   0.00000  Uiso   1.00
O46    O     0.12500   0.80805   0.27745   0.00000  Uiso   1.00
O47    O     0.12500   0.80990   0.42944   0.00000  Uiso   1.00
O48    O     0.12500   0.83940   0.58362   0.00000  Uiso   1.00
O49    O     0.25000   0.55480   0.00000   0.00000  Uiso   1.00
O50    O     0.25000   0.55689   0.14491   0.00000  Uiso   1.00
O51    O     0.25000   0.55802   0.29643   0.00000  Uiso   1.00
O52    O     0.25000   0.55881   0.44909   0.00000  Uiso   1.00
O53    O     0.25000   0.75000   0.05456   0.00000  Uiso   1.00
O54    O     0.25000   0.76179   0.20141   0.00000  Uiso   1.00
O55    O     0.25000   0.76118   0.35360   0.00000  Uiso   1.00
O56    O     0.25000   0.76654   0.50558   0.00000  Uiso   1.00
O57    O     0.37500   0.50000   0.06988   0.00000  Uiso   1.00
O58    O     0.37500   0.51145   0.22042   0.00000  Uiso   1.00
O59    O     0.37500   0.51207   0.37228   0.00000  Uiso   1.00
O60    O     0.37500   0.52623   0.52609   0.00000  Uiso   1.00
O61    O     0.37500   0.80480   0.12444   0.00000  Uiso   1.00
O62    O     0.37500   0.80805   0.27745   0.00000  Uiso   1.00
O63    O     0.37500   0.80990   0.42944   0.00000  Uiso   1.00
O64    O     0.37500   0.83940   0.58362   0.00000  Uiso   1.00
O65    O     0.50000   0.05480   0.00000   0.00000  Uiso   1.00
O66    O     0.50000   0.05689   0.14491   0.00000  Uiso   1.00
O67    O     0.50000   0.05802   0.29643   0.00000  Uiso   1.00
O68    O     0.50000   0.05881   0.44909   0.00000  Uiso   1.00
O69    O     0.50000   0.25000   0.05456   0.00000  Uiso   1.00
O70    O     0.50000   0.26179   0.20141   0.00000  Uiso   1.00
O71    O     0.50000   0.26118   0.35360   0.00000  Uiso   1.00
O72    O     0.50000   0.26654   0.50558   0.00000  Uiso   1.00
O73    O     0.62500   0.00000   0.06988   0.00000  Uiso   1.00
O74    O     0.62500   0.01145   0.22042   0.00000  Uiso   1.00
O75    O     0.62500   0.01207   0.37228   0.00000  Uiso   1.00
O76    O     0.62500   0.02623   0.52609   0.00000  Uiso   1.00
O77    O     0.62500   0.30480   0.12444   0.00000  Uiso   1.00
O78    O     0.62500   0.30805   0.27745   0.00000  Uiso   1.00
O79    O     0.62500   0.30990   0.42944   0.00000  Uiso   1.00
O80    O     0.62500   0.33940   0.58362   0.00000  Uiso   1.00
O81    O     0.75000   0.05480   0.00000   0.00000  Uiso   1.00
O82    O     0.75000   0.05689   0.14491   0.00000  Uiso   1.00
O83    O     0.75000   0.05802   0.29643   0.00000  Uiso   1.00
O84    O     0.75000   0.05881   0.44909   0.00000  Uiso   1.00
O85    O     0.75000   0.25000   0.05456   0.00000  Uiso   1.00
O86    O     0.75000   0.26179   0.20141   0.00000  Uiso   1.00
O87    O     0.75000   0.26118   0.35360   0.00000  Uiso   1.00
O88    O     0.75000   0.26654   0.50558   0.00000  Uiso   1.00
O89    O     0.87500   0.00000   0.06988   0.00000  Uiso   1.00
O90    O     0.87500   0.01145   0.22042   0.00000  Uiso   1.00
O91    O     0.87500   0.01207   0.37228   0.00000  Uiso   1.00
O92    O     0.87500   0.02623   0.52609   0.00000  Uiso   1.00
O93    O     0.87500   0.30480   0.12444   0.00000  Uiso   1.00
O94    O     0.87500   0.30805   0.27745   0.00000  Uiso   1.00
O95    O     0.87500   0.30990   0.42944   0.00000  Uiso   1.00
O96    O     0.87500   0.33940   0.58362   0.00000  Uiso   1.00
O97    O     0.50000   0.55480   0.00000   0.00000  Uiso   1.00
O98    O     0.50000   0.55689   0.14491   0.00000  Uiso   1.00
O99    O     0.50000   0.55802   0.29643   0.00000  Uiso   1.00
O100   O     0.50000   0.55881   0.44909   0.00000  Uiso   1.00
O101   O     0.50000   0.75000   0.05456   0.00000  Uiso   1.00
O102   O     0.50000   0.76179   0.20141   0.00000  Uiso   1.00
O103   O     0.50000   0.76118   0.35360   0.00000  Uiso   1.00
O104   O     0.50000   0.76654   0.50558   0.00000  Uiso   1.00
O105   O     0.62500   0.50000   0.06988   0.00000  Uiso   1.00
O106   O     0.62500   0.51145   0.22042   0.00000  Uiso   1.00
O107   O     0.62500   0.51207   0.37228   0.00000  Uiso   1.00
O108   O     0.62500   0.52623   0.52609   0.00000  Uiso   1.00
O109   O     0.62500   0.80480   0.12444   0.00000  Uiso   1.00
O110   O     0.62500   0.80805   0.27745   0.00000  Uiso   1.00
O111   O     0.62500   0.80990   0.42944   0.00000  Uiso   1.00
O112   O     0.62500   0.83940   0.58362   0.00000  Uiso   1.00
O113   O     0.75000   0.55480   0.00000   0.00000  Uiso   1.00
O114   O     0.75000   0.55689   0.14491   0.00000  Uiso   1.00
O115   O     0.75000   0.55802   0.29643   0.00000  Uiso   1.00
O116   O     0.75000   0.55881   0.44909   0.00000  Uiso   1.00
O117   O     0.75000   0.75000   0.05456   0.00000  Uiso   1.00
O118   O     0.75000   0.76179   0.20141   0.00000  Uiso   1.00
O119   O     0.75000   0.76118   0.35360   0.00000  Uiso   1.00
O120   O     0.75000   0.76654   0.50558   0.00000  Uiso   1.00
O121   O     0.87500   0.50000   0.06988   0.00000  Uiso   1.00
O122   O     0.87500   0.51145   0.22042   0.00000  Uiso   1.00
O123   O     0.87500   0.51207   0.37228   0.00000  Uiso   1.00
O124   O     0.87500   0.52623   0.52609   0.00000  Uiso   1.00
O125   O     0.87500   0.80480   0.12444   0.00000  Uiso   1.00
O126   O     0.87500   0.80805   0.27745   0.00000  Uiso   1.00
O127   O     0.87500   0.80990   0.42944   0.00000  Uiso   1.00
O128   O     0.87500   0.83940   0.58362   0.00000  Uiso   1.00
O      O     0.73906   0.57058   0.58614   0.00000  Uiso   1.00
H      H     0.75835   0.56331   0.62097   0.00000  Uiso   1.00
loop_
_geom_bond_atom_site_label_1
_geom_bond_atom_site_label_2
_geom_bond_distance
_geom_bond_site_symmetry_2
_ccdc_geom_bond_type
Ti1    Ti9     2.941   .     S
Ti1    Ti41    2.941   1_455 S
Ti1    O5      1.926   .     S
Ti1    O13     1.919   .     S
Ti1    O34     2.053   .     S
Ti1    O41     1.919   .     S
Ti1    O93     1.919   1_455 S
Ti1    O121    1.919   1_455 S
Ti2    Ti10    2.941   .     S
Ti2    Ti42    2.941   1_455 S
Ti2    O6      1.961   .     S
Ti2    O14     1.935   .     S
Ti2    O35     2.055   .     S
Ti2    O42     1.974   .     S
Ti2    O94     1.935   1_455 S
Ti2    O122    1.974   1_455 S
Ti3    Ti11    2.941   .     S
Ti3    Ti43    2.941   1_455 S
Ti3    O7      1.939   .     S
Ti3    O15     1.921   .     S
Ti3    O36     2.095   .     S
Ti3    O43     1.987   .     S
Ti3    O95     1.921   1_455 S
Ti3    O123    1.987   1_455 S
Ti4    Ti12    2.941   .     S
Ti4    Ti44    2.941   1_455 S
Ti4    O8      1.847   .     S
Ti4    O16     1.850   .     S
Ti4    O44     2.059   .     S
Ti4    O96     1.850   1_455 S
Ti4    O124    2.059   1_455 S
Ti5    Ti13    2.941   .     S
Ti5    Ti45    2.941   1_455 S
Ti5    O1      1.919   .     S
Ti5    O5      1.919   .     S
Ti5    O9      1.924   .     S
Ti5    O17     1.919   .     S
Ti5    O21     1.919   .     S
Ti6    Ti14    2.941   .     S
Ti6    Ti46    2.941   1_455 S
Ti6    O2      1.934   .     S
Ti6    O6      1.974   .     S
Ti6    O10     1.964   .     S
Ti6    O13     2.052   .     S
Ti6    O18     1.934   .     S
Ti6    O22     1.974   .     S
Ti7    Ti15    2.941   .     S
Ti7    Ti47    2.941   1_455 S
Ti7    O3      1.931   .     S
Ti7    O7      1.981   .     S
Ti7    O11     1.947   .     S
Ti7    O14     2.059   .     S
Ti7    O19     1.931   .     S
Ti7    O23     1.981   .     S
Ti8    Ti16    2.941   .     S
Ti8    Ti48    2.941   1_455 S
Ti8    O4      1.912   .     S
Ti8    O8      2.015   .     S
Ti8    O12     1.870   .     S
Ti8    O15     2.111   .     S
Ti8    O20     1.912   .     S
Ti8    O24     2.015   .     S
Ti9    Ti33    2.941   .     S
Ti9    O13     1.919   .     S
Ti9    O21     1.926   .     S
Ti9    O29     1.919   .     S
Ti9    O41     1.919   .     S
Ti9    O50     2.053   .     S
Ti9    O57     1.919   .     S
Ti10   Ti34    2.941   .     S
Ti10   O14     1.935   .     S
Ti10   O22     1.961   .     S
Ti10   O30     1.935   .     S
Ti10   O42     1.974   .     S
Ti10   O51     2.055   .     S
Ti10   O58     1.974   .     S
Ti11   Ti35    2.941   .     S
Ti11   O15     1.921   .     S
Ti11   O23     1.939   .     S
Ti11   O31     1.921   .     S
Ti11   O43     1.987   .     S
Ti11   O52     2.095   .     S
Ti11   O59     1.987   .     S
Ti12   Ti36    2.941   .     S
Ti12   O16     1.850   .     S
Ti12   O24     1.847   .     S
Ti12   O32     1.850   .     S
Ti12   O44     2.059   .     S
Ti12   O60     2.059   .     S
Ti13   Ti37    2.941   .     S
Ti13   O17     1.919   .     S
Ti13   O21     1.919   .     S
Ti13   O25     1.924   .     S
Ti13   O65     1.919   .     S
Ti13   O69     1.919   .     S
Ti14   Ti38    2.941   .     S
Ti14   O18     1.934   .     S
Ti14   O22     1.974   .     S
Ti14   O26     1.964   .     S
Ti14   O29     2.052   .     S
Ti14   O66     1.934   .     S
Ti14   O70     1.974   .     S
Ti15   Ti39    2.941   .     S
Ti15   O19     1.931   .     S
Ti15   O23     1.981   .     S
Ti15   O27     1.947   .     S
Ti15   O30     2.059   .     S
Ti15   O67     1.931   .     S
Ti15   O71     1.981   .     S
Ti16   Ti40    2.941   .     S
Ti16   O20     1.912   .     S
Ti16   O24     2.015   .     S
Ti16   O28     1.870   .     S
Ti16   O31     2.111   .     S
Ti16   O68     1.912   .     S
Ti16   O72     2.015   .     S
Ti17   Ti25    2.941   .     S
Ti17   Ti57    2.941   1_455 S
Ti17   O2      2.053   1_565 S
Ti17   O9      1.919   1_565 S
Ti17   O37     1.926   .     S
Ti17   O45     1.919   .     S
Ti17   O89     1.919   1_465 S
Ti17   O125    1.919   1_455 S
Ti18   Ti26    2.941   .     S
Ti18   Ti58    2.941   1_455 S
Ti18   O3      2.055   1_565 S
Ti18   O10     1.974   1_565 S
Ti18   O38     1.961   .     S
Ti18   O46     1.935   .     S
Ti18   O90     1.974   1_465 S
Ti18   O126    1.935   1_455 S
Ti19   Ti27    2.941   .     S
Ti19   Ti59    2.941   1_455 S
Ti19   O4      2.095   1_565 S
Ti19   O11     1.987   1_565 S
Ti19   O39     1.939   .     S
Ti19   O47     1.921   .     S
Ti19   O91     1.987   1_465 S
Ti19   O127    1.921   1_455 S
Ti20   Ti28    2.941   .     S
Ti20   Ti60    2.941   1_455 S
Ti20   O12     2.059   1_565 S
Ti20   O40     1.847   .     S
Ti20   O48     1.850   .     S
Ti20   O92     2.059   1_465 S
Ti20   O128    1.850   1_455 S
Ti21   Ti29    2.941   .     S
Ti21   Ti61    2.941   1_455 S
Ti21   O33     1.919   .     S
Ti21   O37     1.919   .     S
Ti21   O41     1.924   .     S
Ti21   O49     1.919   .     S
Ti21   O53     1.919   .     S
Ti22   Ti30    2.941   .     S
Ti22   Ti62    2.941   1_455 S
Ti22   O34     1.934   .     S
Ti22   O38     1.974   .     S
Ti22   O42     1.964   .     S
Ti22   O45     2.052   .     S
Ti22   O50     1.934   .     S
Ti22   O54     1.974   .     S
Ti23   Ti31    2.941   .     S
Ti23   Ti63    2.941   1_455 S
Ti23   O35     1.931   .     S
Ti23   O39     1.981   .     S
Ti23   O43     1.947   .     S
Ti23   O46     2.059   .     S
Ti23   O51     1.931   .     S
Ti23   O55     1.981   .     S
Ti24   Ti32    2.941   .     S
Ti24   Ti64    2.941   1_455 S
Ti24   O36     1.912   .     S
Ti24   O40     2.015   .     S
Ti24   O44     1.870   .     S
Ti24   O47     2.111   .     S
Ti24   O52     1.912   .     S
Ti24   O56     2.015   .     S
Ti25   Ti49    2.941   .     S
Ti25   O9      1.919   1_565 S
Ti25   O18     2.053   1_565 S
Ti25   O25     1.919   1_565 S
Ti25   O45     1.919   .     S
Ti25   O53     1.926   .     S
Ti25   O61     1.919   .     S
Ti26   Ti50    2.941   .     S
Ti26   O10     1.974   1_565 S
Ti26   O19     2.055   1_565 S
Ti26   O26     1.974   1_565 S
Ti26   O46     1.935   .     S
Ti26   O54     1.961   .     S
Ti26   O62     1.935   .     S
Ti27   Ti51    2.941   .     S
Ti27   O11     1.987   1_565 S
Ti27   O20     2.095   1_565 S
Ti27   O27     1.987   1_565 S
Ti27   O47     1.921   .     S
Ti27   O55     1.939   .     S
Ti27   O63     1.921   .     S
Ti28   Ti52    2.941   .     S
Ti28   O12     2.059   1_565 S
Ti28   O28     2.059   1_565 S
Ti28   O48     1.850   .     S
Ti28   O56     1.847   .     S
Ti28   O64     1.850   .     S
Ti29   Ti53    2.941   .     S
Ti29   O49     1.919   .     S
Ti29   O53     1.919   .     S
Ti29   O57     1.924   .     S
Ti29   O97     1.919   .     S
Ti29   O101    1.919   .     S
Ti30   Ti54    2.941   .     S
Ti30   O50     1.934   .     S
Ti30   O54     1.974   .     S
Ti30   O58     1.964   .     S
Ti30   O61     2.052   .     S
Ti30   O98     1.934   .     S
Ti30   O102    1.974   .     S
Ti31   Ti55    2.941   .     S
Ti31   O51     1.931   .     S
Ti31   O55     1.981   .     S
Ti31   O59     1.947   .     S
Ti31   O62     2.059   .     S
Ti31   O99     1.931   .     S
Ti31   O103    1.981   .     S
Ti32   Ti56    2.941   .     S
Ti32   O52     1.912   .     S
Ti32   O56     2.015   .     S
Ti32   O60     1.870   .     S
Ti32   O63     2.111   .     S
Ti32   O100    1.912   .     S
Ti32   O104    2.015   .     S
Ti33   Ti41    2.941   .     S
Ti33   O29     1.919   .     S
Ti33   O57     1.919   .     S
Ti33   O69     1.926   .     S
Ti33   O77     1.919   .     S
Ti33   O98     2.053   .     S
Ti33   O105    1.919   .     S
Ti34   Ti42    2.941   .     S
Ti34   O30     1.935   .     S
Ti34   O58     1.974   .     S
Ti34   O70     1.961   .     S
Ti34   O78     1.935   .     S
Ti34   O99     2.055   .     S
Ti34   O106    1.974   .     S
Ti35   Ti43    2.941   .     S
Ti35   O31     1.921   .     S
Ti35   O59     1.987   .     S
Ti35   O71     1.939   .     S
Ti35   O79     1.921   .     S
Ti35   O100    2.095   .     S
Ti35   O107    1.987   .     S
Ti36   Ti44    2.941   .     S
Ti36   O32     1.850   .     S
Ti36   O60     2.059   .     S
Ti36   O72     1.847   .     S
Ti36   O80     1.850   .     S
Ti36   O108    2.059   .     S
Ti37   Ti45    2.941   .     S
Ti37   O65     1.919   .     S
Ti37   O69     1.919   .     S
Ti37   O73     1.924   .     S
Ti37   O81     1.919   .     S
Ti37   O85     1.919   .     S
Ti38   Ti46    2.941   .     S
Ti38   O66     1.934   .     S
Ti38   O70     1.974   .     S
Ti38   O74     1.964   .     S
Ti38   O77     2.052   .     S
Ti38   O82     1.934   .     S
Ti38   O86     1.974   .     S
Ti39   Ti47    2.941   .     S
Ti39   O67     1.931   .     S
Ti39   O71     1.981   .     S
Ti39   O75     1.947   .     S
Ti39   O78     2.059   .     S
Ti39   O83     1.931   .     S
Ti39   O87     1.981   .     S
Ti40   Ti48    2.941   .     S
Ti40   O68     1.912   .     S
Ti40   O72     2.015   .     S
Ti40   O76     1.870   .     S
Ti40   O79     2.111   .     S
Ti40   O84     1.912   .     S
Ti40   O88     2.015   .     S
Ti41   Ti1     2.941   1_655 S
Ti41   O77     1.919   .     S
Ti41   O85     1.926   .     S
Ti41   O93     1.919   .     S
Ti41   O105    1.919   .     S
Ti41   O114    2.053   .     S
Ti41   O121    1.919   .     S
Ti42   Ti2     2.941   1_655 S
Ti42   O78     1.935   .     S
Ti42   O86     1.961   .     S
Ti42   O94     1.935   .     S
Ti42   O106    1.974   .     S
Ti42   O115    2.055   .     S
Ti42   O122    1.974   .     S
Ti43   Ti3     2.941   1_655 S
Ti43   O79     1.921   .     S
Ti43   O87     1.939   .     S
Ti43   O95     1.921   .     S
Ti43   O107    1.987   .     S
Ti43   O116    2.095   .     S
Ti43   O123    1.987   .     S
Ti44   Ti4     2.941   1_655 S
Ti44   O80     1.850   .     S
Ti44   O88     1.847   .     S
Ti44   O96     1.850   .     S
Ti44   O108    2.059   .     S
Ti44   O124    2.059   .     S
Ti44   O       1.946   .     S
Ti45   Ti5     2.941   1_655 S
Ti45   O1      1.919   1_655 S
Ti45   O5      1.919   1_655 S
Ti45   O81     1.919   .     S
Ti45   O85     1.919   .     S
Ti45   O89     1.924   .     S
Ti46   Ti6     2.941   1_655 S
Ti46   O2      1.934   1_655 S
Ti46   O6      1.974   1_655 S
Ti46   O82     1.934   .     S
Ti46   O86     1.974   .     S
Ti46   O90     1.964   .     S
Ti46   O93     2.052   .     S
Ti47   Ti7     2.941   1_655 S
Ti47   O3      1.931   1_655 S
Ti47   O7      1.981   1_655 S
Ti47   O83     1.931   .     S
Ti47   O87     1.981   .     S
Ti47   O91     1.947   .     S
Ti47   O94     2.059   .     S
Ti48   Ti8     2.941   1_655 S
Ti48   O4      1.912   1_655 S
Ti48   O8      2.015   1_655 S
Ti48   O84     1.912   .     S
Ti48   O88     2.015   .     S
Ti48   O92     1.870   .     S
Ti48   O95     2.111   .     S
Ti49   Ti57    2.941   .     S
Ti49   O25     1.919   1_565 S
Ti49   O61     1.919   .     S
Ti49   O66     2.053   1_565 S
Ti49   O73     1.919   1_565 S
Ti49   O101    1.926   .     S
Ti49   O109    1.919   .     S
Ti50   Ti58    2.941   .     S
Ti50   O26     1.974   1_565 S
Ti50   O62     1.935   .     S
Ti50   O67     2.055   1_565 S
Ti50   O74     1.974   1_565 S
Ti50   O102    1.961   .     S
Ti50   O110    1.935   .     S
Ti51   Ti59    2.941   .     S
Ti51   O27     1.987   1_565 S
Ti51   O63     1.921   .     S
Ti51   O68     2.095   1_565 S
Ti51   O75     1.987   1_565 S
Ti51   O103    1.939   .     S
Ti51   O111    1.921   .     S
Ti52   Ti60    2.941   .     S
Ti52   O28     2.059   1_565 S
Ti52   O64     1.850   .     S
Ti52   O76     2.059   1_565 S
Ti52   O104    1.847   .     S
Ti52   O112    1.850   .     S
Ti53   Ti61    2.941   .     S
Ti53   O97     1.919   .     S
Ti53   O101    1.919   .     S
Ti53   O105    1.924   .     S
Ti53   O113    1.919   .     S
Ti53   O117    1.919   .     S
Ti54   Ti62    2.941   .     S
Ti54   O98     1.934   .     S
Ti54   O102    1.974   .     S
Ti54   O106    1.964   .     S
Ti54   O109    2.052   .     S
Ti54   O114    1.934   .     S
Ti54   O118    1.974   .     S
Ti55   Ti63    2.941   .     S
Ti55   O99     1.931   .     S
Ti55   O103    1.981   .     S
Ti55   O107    1.947   .     S
Ti55   O110    2.059   .     S
Ti55   O115    1.931   .     S
Ti55   O119    1.981   .     S
Ti56   Ti64    2.941   .     S
Ti56   O100    1.912   .     S
Ti56   O104    2.015   .     S
Ti56   O108    1.870   .     S
Ti56   O111    2.111   .     S
Ti56   O116    1.912   .     S
Ti56   O120    2.015   .     S
Ti57   Ti17    2.941   1_655 S
Ti57   O73     1.919   1_565 S
Ti57   O82     2.053   1_565 S
Ti57   O89     1.919   1_565 S
Ti57   O109    1.919   .     S
Ti57   O117    1.926   .     S
Ti57   O125    1.919   .     S
Ti58   Ti18    2.941   1_655 S
Ti58   O74     1.974   1_565 S
Ti58   O83     2.055   1_565 S
Ti58   O90     1.974   1_565 S
Ti58   O110    1.935   .     S
Ti58   O118    1.961   .     S
Ti58   O126    1.935   .     S
Ti59   Ti19    2.941   1_655 S
Ti59   O75     1.987   1_565 S
Ti59   O84     2.095   1_565 S
Ti59   O91     1.987   1_565 S
Ti59   O111    1.921   .     S
Ti59   O119    1.939   .     S
Ti59   O127    1.921   .     S
Ti60   Ti20    2.941   1_655 S
Ti60   O76     2.059   1_565 S
Ti60   O92     2.059   1_565 S
Ti60   O112    1.850   .     S
Ti60   O120    1.847   .     S
Ti60   O128    1.850   .     S
Ti61   Ti21    2.941   1_655 S
Ti61   O33     1.919   1_655 S
Ti61   O37     1.919   1_655 S
Ti61   O113    1.919   .     S
Ti61   O117    1.919   .     S
Ti61   O121    1.924   .     S
Ti62   Ti22    2.941   1_655 S
Ti62   O34     1.934   1_655 S
Ti62   O38     1.974   1_655 S
Ti62   O114    1.934   .     S
Ti62   O118    1.974   .     S
Ti62   O122    1.964   .     S
Ti62   O125    2.052   .     S
Ti63   Ti23    2.941   1_655 S
Ti63   O35     1.931   1_655 S
Ti63   O39     1.981   1_655 S
Ti63   O115    1.931   .     S
Ti63   O119    1.981   .     S
Ti63   O123    1.947   .     S
Ti63   O126    2.059   .     S
Ti64   Ti24    2.941   1_655 S
Ti64   O36     1.912   1_655 S
Ti64   O40     2.015   1_655 S
Ti64   O116    1.912   .     S
Ti64   O120    2.015   .     S
Ti64   O124    1.870   .     S
Ti64   O127    2.111   .     S
O1     Ti45    1.919   1_455 S
O2     Ti46    1.934   1_455 S
O2     Ti17    2.053   1_545 S
O3     Ti47    1.931   1_455 S
O3     Ti18    2.055   1_545 S
O4     Ti48    1.912   1_455 S
O4     Ti19    2.095   1_545 S
O5     Ti45    1.919   1_455 S
O6     Ti46    1.974   1_455 S
O7     Ti47    1.981   1_455 S
O8     Ti48    2.015   1_455 S
O9     Ti25    1.919   1_545 S
O9     Ti17    1.919   1_545 S
O10    Ti26    1.974   1_545 S
O10    Ti18    1.974   1_545 S
O11    Ti27    1.987   1_545 S
O11    Ti19    1.987   1_545 S
O12    Ti28    2.059   1_545 S
O12    Ti20    2.059   1_545 S
O18    Ti25    2.053   1_545 S
O19    Ti26    2.055   1_545 S
O20    Ti27    2.095   1_545 S
O25    Ti49    1.919   1_545 S
O25    Ti25    1.919   1_545 S
O26    Ti50    1.974   1_545 S
O26    Ti26    1.974   1_545 S
O27    Ti51    1.987   1_545 S
O27    Ti27    1.987   1_545 S
O28    Ti52    2.059   1_545 S
O28    Ti28    2.059   1_545 S
O33    Ti61    1.919   1_455 S
O34    Ti62    1.934   1_455 S
O35    Ti63    1.931   1_455 S
O36    Ti64    1.912   1_455 S
O37    Ti61    1.919   1_455 S
O38    Ti62    1.974   1_455 S
O39    Ti63    1.981   1_455 S
O40    Ti64    2.015   1_455 S
O66    Ti49    2.053   1_545 S
O67    Ti50    2.055   1_545 S
O68    Ti51    2.095   1_545 S
O73    Ti57    1.919   1_545 S
O73    Ti49    1.919   1_545 S
O74    Ti58    1.974   1_545 S
O74    Ti50    1.974   1_545 S
O75    Ti59    1.987   1_545 S
O75    Ti51    1.987   1_545 S
O76    Ti60    2.059   1_545 S
O76    Ti52    2.059   1_545 S
O82    Ti57    2.053   1_545 S
O83    Ti58    2.055   1_545 S
O84    Ti59    2.095   1_545 S
O89    Ti17    1.919   1_645 S
O89    Ti57    1.919   1_545 S
O90    Ti18    1.974   1_645 S
O90    Ti58    1.974   1_545 S
O91    Ti19    1.987   1_645 S
O91    Ti59    1.987   1_545 S
O92    Ti20    2.059   1_645 S
O92    Ti60    2.059   1_545 S
O93    Ti1     1.919   1_655 S
O94    Ti2     1.935   1_655 S
O95    Ti3     1.921   1_655 S
O96    Ti4     1.850   1_655 S
O121   Ti1     1.919   1_655 S
O122   Ti2     1.974   1_655 S
O123   Ti3     1.987   1_655 S
O124   Ti4     2.059   1_655 S
O125   Ti17    1.919   1_655 S
O126   Ti18    1.935   1_655 S
O127   Ti19    1.921   1_655 S
O128   Ti20    1.850   1_655 S
O      H       1.110   .     S
