data_CONTCAR010
_audit_creation_date              2022-01-18
_audit_creation_method            'Materials Studio'
_symmetry_space_group_name_H-M    'P1'
_symmetry_Int_Tables_number       1
_symmetry_cell_setting            triclinic
loop_
_symmetry_equiv_pos_as_xyz
  x,y,z
_cell_length_a                    11.7659
_cell_length_b                    9.1541
_cell_length_c                    31.1363
_cell_angle_alpha                 89.9550
_cell_angle_beta                  90.0000
_cell_angle_gamma                 90.0000
loop_
_atom_site_label
_atom_site_type_symbol
_atom_site_fract_x
_atom_site_fract_y
_atom_site_fract_z
_atom_site_U_iso_or_equiv
_atom_site_adp_type
_atom_site_occupancy
Ti1    Ti    0.00000   0.40240   0.09716   0.00000  Uiso   1.00
Ti2    Ti    0.00000   0.40389   0.24850   0.00000  Uiso   1.00
Ti3    Ti    0.00000   0.40141   0.40026   0.00000  Uiso   1.00
Ti4    Ti    0.00000   0.39442   0.55143   0.00000  Uiso   1.00
Ti5    Ti    0.12500   0.15240   0.02728   0.00000  Uiso   1.00
Ti6    Ti    0.12500   0.15425   0.17332   0.00000  Uiso   1.00
Ti7    Ti    0.12500   0.15278   0.32536   0.00000  Uiso   1.00
Ti8    Ti    0.12500   0.14892   0.47803   0.00000  Uiso   1.00
Ti9    Ti    0.25000   0.40240   0.09716   0.00000  Uiso   1.00
Ti10   Ti    0.25000   0.40389   0.24850   0.00000  Uiso   1.00
Ti11   Ti    0.25000   0.40141   0.40026   0.00000  Uiso   1.00
Ti12   Ti    0.25000   0.39442   0.55143   0.00000  Uiso   1.00
Ti13   Ti    0.37500   0.15240   0.02728   0.00000  Uiso   1.00
Ti14   Ti    0.37500   0.15425   0.17332   0.00000  Uiso   1.00
Ti15   Ti    0.37500   0.15278   0.32536   0.00000  Uiso   1.00
Ti16   Ti    0.37500   0.14892   0.47803   0.00000  Uiso   1.00
Ti17   Ti    0.00000   0.90240   0.09716   0.00000  Uiso   1.00
Ti18   Ti    0.00000   0.90389   0.24850   0.00000  Uiso   1.00
Ti19   Ti    0.00000   0.90141   0.40026   0.00000  Uiso   1.00
Ti20   Ti    0.00000   0.89442   0.55143   0.00000  Uiso   1.00
Ti21   Ti    0.12500   0.65240   0.02728   0.00000  Uiso   1.00
Ti22   Ti    0.12500   0.65425   0.17332   0.00000  Uiso   1.00
Ti23   Ti    0.12500   0.65278   0.32536   0.00000  Uiso   1.00
Ti24   Ti    0.12500   0.64892   0.47803   0.00000  Uiso   1.00
Ti25   Ti    0.25000   0.90240   0.09716   0.00000  Uiso   1.00
Ti26   Ti    0.25000   0.90389   0.24850   0.00000  Uiso   1.00
Ti27   Ti    0.25000   0.90141   0.40026   0.00000  Uiso   1.00
Ti28   Ti    0.25000   0.89442   0.55143   0.00000  Uiso   1.00
Ti29   Ti    0.37500   0.65240   0.02728   0.00000  Uiso   1.00
Ti30   Ti    0.37500   0.65425   0.17332   0.00000  Uiso   1.00
Ti31   Ti    0.37500   0.65278   0.32536   0.00000  Uiso   1.00
Ti32   Ti    0.37500   0.64892   0.47803   0.00000  Uiso   1.00
Ti33   Ti    0.50000   0.40240   0.09716   0.00000  Uiso   1.00
Ti34   Ti    0.50000   0.40389   0.24850   0.00000  Uiso   1.00
Ti35   Ti    0.50000   0.40141   0.40026   0.00000  Uiso   1.00
Ti36   Ti    0.50000   0.39442   0.55143   0.00000  Uiso   1.00
Ti37   Ti    0.62500   0.15240   0.02728   0.00000  Uiso   1.00
Ti38   Ti    0.62500   0.15425   0.17332   0.00000  Uiso   1.00
Ti39   Ti    0.62500   0.15278   0.32536   0.00000  Uiso   1.00
Ti40   Ti    0.62500   0.14892   0.47803   0.00000  Uiso   1.00
Ti41   Ti    0.75000   0.40240   0.09716   0.00000  Uiso   1.00
Ti42   Ti    0.75000   0.40389   0.24850   0.00000  Uiso   1.00
Ti43   Ti    0.75000   0.40141   0.40026   0.00000  Uiso   1.00
Ti44   Ti    0.75000   0.39442   0.55143   0.00000  Uiso   1.00
Ti45   Ti    0.87500   0.15240   0.02728   0.00000  Uiso   1.00
Ti46   Ti    0.87500   0.15425   0.17332   0.00000  Uiso   1.00
Ti47   Ti    0.87500   0.15278   0.32536   0.00000  Uiso   1.00
Ti48   Ti    0.87500   0.14892   0.47803   0.00000  Uiso   1.00
Ti49   Ti    0.50000   0.90240   0.09716   0.00000  Uiso   1.00
Ti50   Ti    0.50000   0.90389   0.24850   0.00000  Uiso   1.00
Ti51   Ti    0.50000   0.90141   0.40026   0.00000  Uiso   1.00
Ti52   Ti    0.50000   0.89442   0.55143   0.00000  Uiso   1.00
Ti53   Ti    0.62500   0.65240   0.02728   0.00000  Uiso   1.00
Ti54   Ti    0.62500   0.65425   0.17332   0.00000  Uiso   1.00
Ti55   Ti    0.62500   0.65278   0.32536   0.00000  Uiso   1.00
Ti56   Ti    0.62500   0.64892   0.47803   0.00000  Uiso   1.00
Ti57   Ti    0.75000   0.90240   0.09716   0.00000  Uiso   1.00
Ti58   Ti    0.75000   0.90389   0.24850   0.00000  Uiso   1.00
Ti59   Ti    0.75000   0.90141   0.40026   0.00000  Uiso   1.00
Ti60   Ti    0.75000   0.89442   0.55143   0.00000  Uiso   1.00
Ti61   Ti    0.87500   0.65240   0.02728   0.00000  Uiso   1.00
Ti62   Ti    0.87500   0.65425   0.17332   0.00000  Uiso   1.00
Ti63   Ti    0.87500   0.65278   0.32536   0.00000  Uiso   1.00
Ti64   Ti    0.87500   0.64892   0.47803   0.00000  Uiso   1.00
O65    O     0.00000   0.05480   0.00000   0.00000  Uiso   1.00
O66    O     0.00000   0.05689   0.14491   0.00000  Uiso   1.00
O67    O     0.00000   0.05802   0.29643   0.00000  Uiso   1.00
O68    O     0.00000   0.05881   0.44909   0.00000  Uiso   1.00
O69    O     0.00000   0.25000   0.05456   0.00000  Uiso   1.00
O70    O     0.00000   0.26179   0.20141   0.00000  Uiso   1.00
O71    O     0.00000   0.26118   0.35360   0.00000  Uiso   1.00
O72    O     0.00000   0.26654   0.50558   0.00000  Uiso   1.00
O73    O     0.12500   0.00000   0.06988   0.00000  Uiso   1.00
O74    O     0.12500   0.01145   0.22042   0.00000  Uiso   1.00
O75    O     0.12500   0.01207   0.37228   0.00000  Uiso   1.00
O76    O     0.12500   0.02623   0.52609   0.00000  Uiso   1.00
O77    O     0.12500   0.30480   0.12444   0.00000  Uiso   1.00
O78    O     0.12500   0.30805   0.27745   0.00000  Uiso   1.00
O79    O     0.12500   0.30990   0.42944   0.00000  Uiso   1.00
O80    O     0.12500   0.33940   0.58362   0.00000  Uiso   1.00
O81    O     0.25000   0.05480   0.00000   0.00000  Uiso   1.00
O82    O     0.25000   0.05689   0.14491   0.00000  Uiso   1.00
O83    O     0.25000   0.05802   0.29643   0.00000  Uiso   1.00
O84    O     0.25000   0.05881   0.44909   0.00000  Uiso   1.00
O85    O     0.25000   0.25000   0.05456   0.00000  Uiso   1.00
O86    O     0.25000   0.26179   0.20141   0.00000  Uiso   1.00
O87    O     0.25000   0.26118   0.35360   0.00000  Uiso   1.00
O88    O     0.25000   0.26654   0.50558   0.00000  Uiso   1.00
O89    O     0.37500   0.00000   0.06988   0.00000  Uiso   1.00
O90    O     0.37500   0.01145   0.22042   0.00000  Uiso   1.00
O91    O     0.37500   0.01207   0.37228   0.00000  Uiso   1.00
O92    O     0.37500   0.02623   0.52609   0.00000  Uiso   1.00
O93    O     0.37500   0.30480   0.12444   0.00000  Uiso   1.00
O94    O     0.37500   0.30805   0.27745   0.00000  Uiso   1.00
O95    O     0.37500   0.30990   0.42944   0.00000  Uiso   1.00
O96    O     0.37500   0.33940   0.58362   0.00000  Uiso   1.00
O97    O     0.00000   0.55480   0.00000   0.00000  Uiso   1.00
O98    O     0.00000   0.55689   0.14491   0.00000  Uiso   1.00
O99    O     0.00000   0.55802   0.29643   0.00000  Uiso   1.00
O100   O     0.00000   0.55881   0.44909   0.00000  Uiso   1.00
O101   O     0.00000   0.75000   0.05456   0.00000  Uiso   1.00
O102   O     0.00000   0.76179   0.20141   0.00000  Uiso   1.00
O103   O     0.00000   0.76118   0.35360   0.00000  Uiso   1.00
O104   O     0.00000   0.76654   0.50558   0.00000  Uiso   1.00
O105   O     0.12500   0.50000   0.06988   0.00000  Uiso   1.00
O106   O     0.12500   0.51145   0.22042   0.00000  Uiso   1.00
O107   O     0.12500   0.51207   0.37228   0.00000  Uiso   1.00
O108   O     0.12500   0.52623   0.52609   0.00000  Uiso   1.00
O109   O     0.12500   0.80480   0.12444   0.00000  Uiso   1.00
O110   O     0.12500   0.80805   0.27745   0.00000  Uiso   1.00
O111   O     0.12500   0.80990   0.42944   0.00000  Uiso   1.00
O112   O     0.12500   0.83940   0.58362   0.00000  Uiso   1.00
O113   O     0.25000   0.55480   0.00000   0.00000  Uiso   1.00
O114   O     0.25000   0.55689   0.14491   0.00000  Uiso   1.00
O115   O     0.25000   0.55802   0.29643   0.00000  Uiso   1.00
O116   O     0.25000   0.55881   0.44909   0.00000  Uiso   1.00
O117   O     0.25000   0.75000   0.05456   0.00000  Uiso   1.00
O118   O     0.25000   0.76179   0.20141   0.00000  Uiso   1.00
O119   O     0.25000   0.76118   0.35360   0.00000  Uiso   1.00
O120   O     0.25000   0.76654   0.50558   0.00000  Uiso   1.00
O121   O     0.37500   0.50000   0.06988   0.00000  Uiso   1.00
O122   O     0.37500   0.51145   0.22042   0.00000  Uiso   1.00
O123   O     0.37500   0.51207   0.37228   0.00000  Uiso   1.00
O124   O     0.37500   0.52623   0.52609   0.00000  Uiso   1.00
O125   O     0.37500   0.80480   0.12444   0.00000  Uiso   1.00
O126   O     0.37500   0.80805   0.27745   0.00000  Uiso   1.00
O127   O     0.37500   0.80990   0.42944   0.00000  Uiso   1.00
O128   O     0.37500   0.83940   0.58362   0.00000  Uiso   1.00
O129   O     0.50000   0.05480   0.00000   0.00000  Uiso   1.00
O130   O     0.50000   0.05689   0.14491   0.00000  Uiso   1.00
O131   O     0.50000   0.05802   0.29643   0.00000  Uiso   1.00
O132   O     0.50000   0.05881   0.44909   0.00000  Uiso   1.00
O133   O     0.50000   0.25000   0.05456   0.00000  Uiso   1.00
O134   O     0.50000   0.26179   0.20141   0.00000  Uiso   1.00
O135   O     0.50000   0.26118   0.35360   0.00000  Uiso   1.00
O136   O     0.50000   0.26654   0.50558   0.00000  Uiso   1.00
O137   O     0.62500   0.00000   0.06988   0.00000  Uiso   1.00
O138   O     0.62500   0.01145   0.22042   0.00000  Uiso   1.00
O139   O     0.62500   0.01207   0.37228   0.00000  Uiso   1.00
O140   O     0.62500   0.02623   0.52609   0.00000  Uiso   1.00
O141   O     0.62500   0.30480   0.12444   0.00000  Uiso   1.00
O142   O     0.62500   0.30805   0.27745   0.00000  Uiso   1.00
O143   O     0.62500   0.30990   0.42944   0.00000  Uiso   1.00
O144   O     0.62500   0.33940   0.58362   0.00000  Uiso   1.00
O145   O     0.75000   0.05480   0.00000   0.00000  Uiso   1.00
O146   O     0.75000   0.05689   0.14491   0.00000  Uiso   1.00
O147   O     0.75000   0.05802   0.29643   0.00000  Uiso   1.00
O148   O     0.75000   0.05881   0.44909   0.00000  Uiso   1.00
O149   O     0.75000   0.25000   0.05456   0.00000  Uiso   1.00
O150   O     0.75000   0.26179   0.20141   0.00000  Uiso   1.00
O151   O     0.75000   0.26118   0.35360   0.00000  Uiso   1.00
O152   O     0.75000   0.26654   0.50558   0.00000  Uiso   1.00
O153   O     0.87500   0.00000   0.06988   0.00000  Uiso   1.00
O154   O     0.87500   0.01145   0.22042   0.00000  Uiso   1.00
O155   O     0.87500   0.01207   0.37228   0.00000  Uiso   1.00
O156   O     0.87500   0.02623   0.52609   0.00000  Uiso   1.00
O157   O     0.87500   0.30480   0.12444   0.00000  Uiso   1.00
O158   O     0.87500   0.30805   0.27745   0.00000  Uiso   1.00
O159   O     0.87500   0.30990   0.42944   0.00000  Uiso   1.00
O160   O     0.87500   0.33940   0.58362   0.00000  Uiso   1.00
O161   O     0.50000   0.55480   0.00000   0.00000  Uiso   1.00
O162   O     0.50000   0.55689   0.14491   0.00000  Uiso   1.00
O163   O     0.50000   0.55802   0.29643   0.00000  Uiso   1.00
O164   O     0.50000   0.55881   0.44909   0.00000  Uiso   1.00
O165   O     0.50000   0.75000   0.05456   0.00000  Uiso   1.00
O166   O     0.50000   0.76179   0.20141   0.00000  Uiso   1.00
O167   O     0.50000   0.76118   0.35360   0.00000  Uiso   1.00
O168   O     0.50000   0.76654   0.50558   0.00000  Uiso   1.00
O169   O     0.62500   0.50000   0.06988   0.00000  Uiso   1.00
O170   O     0.62500   0.51145   0.22042   0.00000  Uiso   1.00
O171   O     0.62500   0.51207   0.37228   0.00000  Uiso   1.00
O172   O     0.62500   0.52623   0.52609   0.00000  Uiso   1.00
O173   O     0.62500   0.80480   0.12444   0.00000  Uiso   1.00
O174   O     0.62500   0.80805   0.27745   0.00000  Uiso   1.00
O175   O     0.62500   0.80990   0.42944   0.00000  Uiso   1.00
O176   O     0.62500   0.83940   0.58362   0.00000  Uiso   1.00
O177   O     0.75000   0.55480   0.00000   0.00000  Uiso   1.00
O178   O     0.75000   0.55689   0.14491   0.00000  Uiso   1.00
O179   O     0.75000   0.55802   0.29643   0.00000  Uiso   1.00
O180   O     0.75000   0.55881   0.44909   0.00000  Uiso   1.00
O181   O     0.75000   0.75000   0.05456   0.00000  Uiso   1.00
O182   O     0.75000   0.76179   0.20141   0.00000  Uiso   1.00
O183   O     0.75000   0.76118   0.35360   0.00000  Uiso   1.00
O184   O     0.75000   0.76654   0.50558   0.00000  Uiso   1.00
O185   O     0.87500   0.50000   0.06988   0.00000  Uiso   1.00
O186   O     0.87500   0.51145   0.22042   0.00000  Uiso   1.00
O187   O     0.87500   0.51207   0.37228   0.00000  Uiso   1.00
O188   O     0.87500   0.52623   0.52609   0.00000  Uiso   1.00
O189   O     0.87500   0.80480   0.12444   0.00000  Uiso   1.00
O190   O     0.87500   0.80805   0.27745   0.00000  Uiso   1.00
O191   O     0.87500   0.80990   0.42944   0.00000  Uiso   1.00
O192   O     0.87500   0.83940   0.58362   0.00000  Uiso   1.00
O193   O     0.73906   0.57058   0.58614   0.00000  Uiso   1.00
O194   O     0.76079   0.56703   0.62476   0.00000  Uiso   1.00
H195   H     0.76574   0.67140   0.64279   0.00000  Uiso   1.00
loop_
_geom_bond_atom_site_label_1
_geom_bond_atom_site_label_2
_geom_bond_distance
_geom_bond_site_symmetry_2
_ccdc_geom_bond_type
Ti1    Ti9     2.941   .     S
Ti1    Ti41    2.941   1_455 S
Ti1    O69     1.926   .     S
Ti1    O77     1.919   .     S
Ti1    O98     2.053   .     S
Ti1    O105    1.919   .     S
Ti1    O157    1.919   1_455 S
Ti1    O185    1.919   1_455 S
Ti2    Ti10    2.941   .     S
Ti2    Ti42    2.941   1_455 S
Ti2    O70     1.961   .     S
Ti2    O78     1.935   .     S
Ti2    O99     2.055   .     S
Ti2    O106    1.974   .     S
Ti2    O158    1.935   1_455 S
Ti2    O186    1.974   1_455 S
Ti3    Ti11    2.941   .     S
Ti3    Ti43    2.941   1_455 S
Ti3    O71     1.939   .     S
Ti3    O79     1.921   .     S
Ti3    O100    2.095   .     S
Ti3    O107    1.987   .     S
Ti3    O159    1.921   1_455 S
Ti3    O187    1.987   1_455 S
Ti4    Ti12    2.941   .     S
Ti4    Ti44    2.941   1_455 S
Ti4    O72     1.847   .     S
Ti4    O80     1.850   .     S
Ti4    O108    2.059   .     S
Ti4    O160    1.850   1_455 S
Ti4    O188    2.059   1_455 S
Ti5    Ti13    2.941   .     S
Ti5    Ti45    2.941   1_455 S
Ti5    O65     1.919   .     S
Ti5    O69     1.919   .     S
Ti5    O73     1.924   .     S
Ti5    O81     1.919   .     S
Ti5    O85     1.919   .     S
Ti6    Ti14    2.941   .     S
Ti6    Ti46    2.941   1_455 S
Ti6    O66     1.934   .     S
Ti6    O70     1.974   .     S
Ti6    O74     1.964   .     S
Ti6    O77     2.052   .     S
Ti6    O82     1.934   .     S
Ti6    O86     1.974   .     S
Ti7    Ti15    2.941   .     S
Ti7    Ti47    2.941   1_455 S
Ti7    O67     1.931   .     S
Ti7    O71     1.981   .     S
Ti7    O75     1.947   .     S
Ti7    O78     2.059   .     S
Ti7    O83     1.931   .     S
Ti7    O87     1.981   .     S
Ti8    Ti16    2.941   .     S
Ti8    Ti48    2.941   1_455 S
Ti8    O68     1.912   .     S
Ti8    O72     2.015   .     S
Ti8    O76     1.870   .     S
Ti8    O79     2.111   .     S
Ti8    O84     1.912   .     S
Ti8    O88     2.015   .     S
Ti9    Ti33    2.941   .     S
Ti9    O77     1.919   .     S
Ti9    O85     1.926   .     S
Ti9    O93     1.919   .     S
Ti9    O105    1.919   .     S
Ti9    O114    2.053   .     S
Ti9    O121    1.919   .     S
Ti10   Ti34    2.941   .     S
Ti10   O78     1.935   .     S
Ti10   O86     1.961   .     S
Ti10   O94     1.935   .     S
Ti10   O106    1.974   .     S
Ti10   O115    2.055   .     S
Ti10   O122    1.974   .     S
Ti11   Ti35    2.941   .     S
Ti11   O79     1.921   .     S
Ti11   O87     1.939   .     S
Ti11   O95     1.921   .     S
Ti11   O107    1.987   .     S
Ti11   O116    2.095   .     S
Ti11   O123    1.987   .     S
Ti12   Ti36    2.941   .     S
Ti12   O80     1.850   .     S
Ti12   O88     1.847   .     S
Ti12   O96     1.850   .     S
Ti12   O108    2.059   .     S
Ti12   O124    2.059   .     S
Ti13   Ti37    2.941   .     S
Ti13   O81     1.919   .     S
Ti13   O85     1.919   .     S
Ti13   O89     1.924   .     S
Ti13   O129    1.919   .     S
Ti13   O133    1.919   .     S
Ti14   Ti38    2.941   .     S
Ti14   O82     1.934   .     S
Ti14   O86     1.974   .     S
Ti14   O90     1.964   .     S
Ti14   O93     2.052   .     S
Ti14   O130    1.934   .     S
Ti14   O134    1.974   .     S
Ti15   Ti39    2.941   .     S
Ti15   O83     1.931   .     S
Ti15   O87     1.981   .     S
Ti15   O91     1.947   .     S
Ti15   O94     2.059   .     S
Ti15   O131    1.931   .     S
Ti15   O135    1.981   .     S
Ti16   Ti40    2.941   .     S
Ti16   O84     1.912   .     S
Ti16   O88     2.015   .     S
Ti16   O92     1.870   .     S
Ti16   O95     2.111   .     S
Ti16   O132    1.912   .     S
Ti16   O136    2.015   .     S
Ti17   Ti25    2.941   .     S
Ti17   Ti57    2.941   1_455 S
Ti17   O66     2.053   1_565 S
Ti17   O73     1.919   1_565 S
Ti17   O101    1.926   .     S
Ti17   O109    1.919   .     S
Ti17   O153    1.919   1_465 S
Ti17   O189    1.919   1_455 S
Ti18   Ti26    2.941   .     S
Ti18   Ti58    2.941   1_455 S
Ti18   O67     2.055   1_565 S
Ti18   O74     1.974   1_565 S
Ti18   O102    1.961   .     S
Ti18   O110    1.935   .     S
Ti18   O154    1.974   1_465 S
Ti18   O190    1.935   1_455 S
Ti19   Ti27    2.941   .     S
Ti19   Ti59    2.941   1_455 S
Ti19   O68     2.095   1_565 S
Ti19   O75     1.987   1_565 S
Ti19   O103    1.939   .     S
Ti19   O111    1.921   .     S
Ti19   O155    1.987   1_465 S
Ti19   O191    1.921   1_455 S
Ti20   Ti28    2.941   .     S
Ti20   Ti60    2.941   1_455 S
Ti20   O76     2.059   1_565 S
Ti20   O104    1.847   .     S
Ti20   O112    1.850   .     S
Ti20   O156    2.059   1_465 S
Ti20   O192    1.850   1_455 S
Ti21   Ti29    2.941   .     S
Ti21   Ti61    2.941   1_455 S
Ti21   O97     1.919   .     S
Ti21   O101    1.919   .     S
Ti21   O105    1.924   .     S
Ti21   O113    1.919   .     S
Ti21   O117    1.919   .     S
Ti22   Ti30    2.941   .     S
Ti22   Ti62    2.941   1_455 S
Ti22   O98     1.934   .     S
Ti22   O102    1.974   .     S
Ti22   O106    1.964   .     S
Ti22   O109    2.052   .     S
Ti22   O114    1.934   .     S
Ti22   O118    1.974   .     S
Ti23   Ti31    2.941   .     S
Ti23   Ti63    2.941   1_455 S
Ti23   O99     1.931   .     S
Ti23   O103    1.981   .     S
Ti23   O107    1.947   .     S
Ti23   O110    2.059   .     S
Ti23   O115    1.931   .     S
Ti23   O119    1.981   .     S
Ti24   Ti32    2.941   .     S
Ti24   Ti64    2.941   1_455 S
Ti24   O100    1.912   .     S
Ti24   O104    2.015   .     S
Ti24   O108    1.870   .     S
Ti24   O111    2.111   .     S
Ti24   O116    1.912   .     S
Ti24   O120    2.015   .     S
Ti25   Ti49    2.941   .     S
Ti25   O73     1.919   1_565 S
Ti25   O82     2.053   1_565 S
Ti25   O89     1.919   1_565 S
Ti25   O109    1.919   .     S
Ti25   O117    1.926   .     S
Ti25   O125    1.919   .     S
Ti26   Ti50    2.941   .     S
Ti26   O74     1.974   1_565 S
Ti26   O83     2.055   1_565 S
Ti26   O90     1.974   1_565 S
Ti26   O110    1.935   .     S
Ti26   O118    1.961   .     S
Ti26   O126    1.935   .     S
Ti27   Ti51    2.941   .     S
Ti27   O75     1.987   1_565 S
Ti27   O84     2.095   1_565 S
Ti27   O91     1.987   1_565 S
Ti27   O111    1.921   .     S
Ti27   O119    1.939   .     S
Ti27   O127    1.921   .     S
Ti28   Ti52    2.941   .     S
Ti28   O76     2.059   1_565 S
Ti28   O92     2.059   1_565 S
Ti28   O112    1.850   .     S
Ti28   O120    1.847   .     S
Ti28   O128    1.850   .     S
Ti29   Ti53    2.941   .     S
Ti29   O113    1.919   .     S
Ti29   O117    1.919   .     S
Ti29   O121    1.924   .     S
Ti29   O161    1.919   .     S
Ti29   O165    1.919   .     S
Ti30   Ti54    2.941   .     S
Ti30   O114    1.934   .     S
Ti30   O118    1.974   .     S
Ti30   O122    1.964   .     S
Ti30   O125    2.052   .     S
Ti30   O162    1.934   .     S
Ti30   O166    1.974   .     S
Ti31   Ti55    2.941   .     S
Ti31   O115    1.931   .     S
Ti31   O119    1.981   .     S
Ti31   O123    1.947   .     S
Ti31   O126    2.059   .     S
Ti31   O163    1.931   .     S
Ti31   O167    1.981   .     S
Ti32   Ti56    2.941   .     S
Ti32   O116    1.912   .     S
Ti32   O120    2.015   .     S
Ti32   O124    1.870   .     S
Ti32   O127    2.111   .     S
Ti32   O164    1.912   .     S
Ti32   O168    2.015   .     S
Ti33   Ti41    2.941   .     S
Ti33   O93     1.919   .     S
Ti33   O121    1.919   .     S
Ti33   O133    1.926   .     S
Ti33   O141    1.919   .     S
Ti33   O162    2.053   .     S
Ti33   O169    1.919   .     S
Ti34   Ti42    2.941   .     S
Ti34   O94     1.935   .     S
Ti34   O122    1.974   .     S
Ti34   O134    1.961   .     S
Ti34   O142    1.935   .     S
Ti34   O163    2.055   .     S
Ti34   O170    1.974   .     S
Ti35   Ti43    2.941   .     S
Ti35   O95     1.921   .     S
Ti35   O123    1.987   .     S
Ti35   O135    1.939   .     S
Ti35   O143    1.921   .     S
Ti35   O164    2.095   .     S
Ti35   O171    1.987   .     S
Ti36   Ti44    2.941   .     S
Ti36   O96     1.850   .     S
Ti36   O124    2.059   .     S
Ti36   O136    1.847   .     S
Ti36   O144    1.850   .     S
Ti36   O172    2.059   .     S
Ti37   Ti45    2.941   .     S
Ti37   O129    1.919   .     S
Ti37   O133    1.919   .     S
Ti37   O137    1.924   .     S
Ti37   O145    1.919   .     S
Ti37   O149    1.919   .     S
Ti38   Ti46    2.941   .     S
Ti38   O130    1.934   .     S
Ti38   O134    1.974   .     S
Ti38   O138    1.964   .     S
Ti38   O141    2.052   .     S
Ti38   O146    1.934   .     S
Ti38   O150    1.974   .     S
Ti39   Ti47    2.941   .     S
Ti39   O131    1.931   .     S
Ti39   O135    1.981   .     S
Ti39   O139    1.947   .     S
Ti39   O142    2.059   .     S
Ti39   O147    1.931   .     S
Ti39   O151    1.981   .     S
Ti40   Ti48    2.941   .     S
Ti40   O132    1.912   .     S
Ti40   O136    2.015   .     S
Ti40   O140    1.870   .     S
Ti40   O143    2.111   .     S
Ti40   O148    1.912   .     S
Ti40   O152    2.015   .     S
Ti41   Ti1     2.941   1_655 S
Ti41   O141    1.919   .     S
Ti41   O149    1.926   .     S
Ti41   O157    1.919   .     S
Ti41   O169    1.919   .     S
Ti41   O178    2.053   .     S
Ti41   O185    1.919   .     S
Ti42   Ti2     2.941   1_655 S
Ti42   O142    1.935   .     S
Ti42   O150    1.961   .     S
Ti42   O158    1.935   .     S
Ti42   O170    1.974   .     S
Ti42   O179    2.055   .     S
Ti42   O186    1.974   .     S
Ti43   Ti3     2.941   1_655 S
Ti43   O143    1.921   .     S
Ti43   O151    1.939   .     S
Ti43   O159    1.921   .     S
Ti43   O171    1.987   .     S
Ti43   O180    2.095   .     S
Ti43   O187    1.987   .     S
Ti44   Ti4     2.941   1_655 S
Ti44   O144    1.850   .     S
Ti44   O152    1.847   .     S
Ti44   O160    1.850   .     S
Ti44   O172    2.059   .     S
Ti44   O188    2.059   .     S
Ti44   O193    1.946   .     S
Ti45   Ti5     2.941   1_655 S
Ti45   O65     1.919   1_655 S
Ti45   O69     1.919   1_655 S
Ti45   O145    1.919   .     S
Ti45   O149    1.919   .     S
Ti45   O153    1.924   .     S
Ti46   Ti6     2.941   1_655 S
Ti46   O66     1.934   1_655 S
Ti46   O70     1.974   1_655 S
Ti46   O146    1.934   .     S
Ti46   O150    1.974   .     S
Ti46   O154    1.964   .     S
Ti46   O157    2.052   .     S
Ti47   Ti7     2.941   1_655 S
Ti47   O67     1.931   1_655 S
Ti47   O71     1.981   1_655 S
Ti47   O147    1.931   .     S
Ti47   O151    1.981   .     S
Ti47   O155    1.947   .     S
Ti47   O158    2.059   .     S
Ti48   Ti8     2.941   1_655 S
Ti48   O68     1.912   1_655 S
Ti48   O72     2.015   1_655 S
Ti48   O148    1.912   .     S
Ti48   O152    2.015   .     S
Ti48   O156    1.870   .     S
Ti48   O159    2.111   .     S
Ti49   Ti57    2.941   .     S
Ti49   O89     1.919   1_565 S
Ti49   O125    1.919   .     S
Ti49   O130    2.053   1_565 S
Ti49   O137    1.919   1_565 S
Ti49   O165    1.926   .     S
Ti49   O173    1.919   .     S
Ti50   Ti58    2.941   .     S
Ti50   O90     1.974   1_565 S
Ti50   O126    1.935   .     S
Ti50   O131    2.055   1_565 S
Ti50   O138    1.974   1_565 S
Ti50   O166    1.961   .     S
Ti50   O174    1.935   .     S
Ti51   Ti59    2.941   .     S
Ti51   O91     1.987   1_565 S
Ti51   O127    1.921   .     S
Ti51   O132    2.095   1_565 S
Ti51   O139    1.987   1_565 S
Ti51   O167    1.939   .     S
Ti51   O175    1.921   .     S
Ti52   Ti60    2.941   .     S
Ti52   O92     2.059   1_565 S
Ti52   O128    1.850   .     S
Ti52   O140    2.059   1_565 S
Ti52   O168    1.847   .     S
Ti52   O176    1.850   .     S
Ti53   Ti61    2.941   .     S
Ti53   O161    1.919   .     S
Ti53   O165    1.919   .     S
Ti53   O169    1.924   .     S
Ti53   O177    1.919   .     S
Ti53   O181    1.919   .     S
Ti54   Ti62    2.941   .     S
Ti54   O162    1.934   .     S
Ti54   O166    1.974   .     S
Ti54   O170    1.964   .     S
Ti54   O173    2.052   .     S
Ti54   O178    1.934   .     S
Ti54   O182    1.974   .     S
Ti55   Ti63    2.941   .     S
Ti55   O163    1.931   .     S
Ti55   O167    1.981   .     S
Ti55   O171    1.947   .     S
Ti55   O174    2.059   .     S
Ti55   O179    1.931   .     S
Ti55   O183    1.981   .     S
Ti56   Ti64    2.941   .     S
Ti56   O164    1.912   .     S
Ti56   O168    2.015   .     S
Ti56   O172    1.870   .     S
Ti56   O175    2.111   .     S
Ti56   O180    1.912   .     S
Ti56   O184    2.015   .     S
Ti57   Ti17    2.941   1_655 S
Ti57   O137    1.919   1_565 S
Ti57   O146    2.053   1_565 S
Ti57   O153    1.919   1_565 S
Ti57   O173    1.919   .     S
Ti57   O181    1.926   .     S
Ti57   O189    1.919   .     S
Ti58   Ti18    2.941   1_655 S
Ti58   O138    1.974   1_565 S
Ti58   O147    2.055   1_565 S
Ti58   O154    1.974   1_565 S
Ti58   O174    1.935   .     S
Ti58   O182    1.961   .     S
Ti58   O190    1.935   .     S
Ti59   Ti19    2.941   1_655 S
Ti59   O139    1.987   1_565 S
Ti59   O148    2.095   1_565 S
Ti59   O155    1.987   1_565 S
Ti59   O175    1.921   .     S
Ti59   O183    1.939   .     S
Ti59   O191    1.921   .     S
Ti60   Ti20    2.941   1_655 S
Ti60   O140    2.059   1_565 S
Ti60   O156    2.059   1_565 S
Ti60   O176    1.850   .     S
Ti60   O184    1.847   .     S
Ti60   O192    1.850   .     S
Ti61   Ti21    2.941   1_655 S
Ti61   O97     1.919   1_655 S
Ti61   O101    1.919   1_655 S
Ti61   O177    1.919   .     S
Ti61   O181    1.919   .     S
Ti61   O185    1.924   .     S
Ti62   Ti22    2.941   1_655 S
Ti62   O98     1.934   1_655 S
Ti62   O102    1.974   1_655 S
Ti62   O178    1.934   .     S
Ti62   O182    1.974   .     S
Ti62   O186    1.964   .     S
Ti62   O189    2.052   .     S
Ti63   Ti23    2.941   1_655 S
Ti63   O99     1.931   1_655 S
Ti63   O103    1.981   1_655 S
Ti63   O179    1.931   .     S
Ti63   O183    1.981   .     S
Ti63   O187    1.947   .     S
Ti63   O190    2.059   .     S
Ti64   Ti24    2.941   1_655 S
Ti64   O100    1.912   1_655 S
Ti64   O104    2.015   1_655 S
Ti64   O180    1.912   .     S
Ti64   O184    2.015   .     S
Ti64   O188    1.870   .     S
Ti64   O191    2.111   .     S
O65    Ti45    1.919   1_455 S
O66    Ti46    1.934   1_455 S
O66    Ti17    2.053   1_545 S
O67    Ti47    1.931   1_455 S
O67    Ti18    2.055   1_545 S
O68    Ti48    1.912   1_455 S
O68    Ti19    2.095   1_545 S
O69    Ti45    1.919   1_455 S
O70    Ti46    1.974   1_455 S
O71    Ti47    1.981   1_455 S
O72    Ti48    2.015   1_455 S
O73    Ti25    1.919   1_545 S
O73    Ti17    1.919   1_545 S
O74    Ti26    1.974   1_545 S
O74    Ti18    1.974   1_545 S
O75    Ti27    1.987   1_545 S
O75    Ti19    1.987   1_545 S
O76    Ti28    2.059   1_545 S
O76    Ti20    2.059   1_545 S
O82    Ti25    2.053   1_545 S
O83    Ti26    2.055   1_545 S
O84    Ti27    2.095   1_545 S
O89    Ti49    1.919   1_545 S
O89    Ti25    1.919   1_545 S
O90    Ti50    1.974   1_545 S
O90    Ti26    1.974   1_545 S
O91    Ti51    1.987   1_545 S
O91    Ti27    1.987   1_545 S
O92    Ti52    2.059   1_545 S
O92    Ti28    2.059   1_545 S
O97    Ti61    1.919   1_455 S
O98    Ti62    1.934   1_455 S
O99    Ti63    1.931   1_455 S
O100   Ti64    1.912   1_455 S
O101   Ti61    1.919   1_455 S
O102   Ti62    1.974   1_455 S
O103   Ti63    1.981   1_455 S
O104   Ti64    2.015   1_455 S
O130   Ti49    2.053   1_545 S
O131   Ti50    2.055   1_545 S
O132   Ti51    2.095   1_545 S
O137   Ti57    1.919   1_545 S
O137   Ti49    1.919   1_545 S
O138   Ti58    1.974   1_545 S
O138   Ti50    1.974   1_545 S
O139   Ti59    1.987   1_545 S
O139   Ti51    1.987   1_545 S
O140   Ti60    2.059   1_545 S
O140   Ti52    2.059   1_545 S
O146   Ti57    2.053   1_545 S
O147   Ti58    2.055   1_545 S
O148   Ti59    2.095   1_545 S
O153   Ti17    1.919   1_645 S
O153   Ti57    1.919   1_545 S
O154   Ti18    1.974   1_645 S
O154   Ti58    1.974   1_545 S
O155   Ti19    1.987   1_645 S
O155   Ti59    1.987   1_545 S
O156   Ti20    2.059   1_645 S
O156   Ti60    2.059   1_545 S
O157   Ti1     1.919   1_655 S
O158   Ti2     1.935   1_655 S
O159   Ti3     1.921   1_655 S
O160   Ti4     1.850   1_655 S
O185   Ti1     1.919   1_655 S
O186   Ti2     1.974   1_655 S
O187   Ti3     1.987   1_655 S
O188   Ti4     2.059   1_655 S
O189   Ti17    1.919   1_655 S
O190   Ti18    1.935   1_655 S
O191   Ti19    1.921   1_655 S
O192   Ti20    1.850   1_655 S
O193   O194    1.230   .     S
O194   H195    1.110   .     S
