data_CONTCAR001
_audit_creation_date              2022-01-18
_audit_creation_method            'Materials Studio'
_symmetry_space_group_name_H-M    'P1'
_symmetry_Int_Tables_number       1
_symmetry_cell_setting            triclinic
loop_
_symmetry_equiv_pos_as_xyz
  x,y,z
_cell_length_a                    18.3759
_cell_length_b                    9.1831
_cell_length_c                    21.4888
_cell_angle_alpha                 90.0000
_cell_angle_beta                  90.0000
_cell_angle_gamma                 90.3143
loop_
_atom_site_label
_atom_site_type_symbol
_atom_site_fract_x
_atom_site_fract_y
_atom_site_fract_z
_atom_site_U_iso_or_equiv
_atom_site_adp_type
_atom_site_occupancy
Ti1    Ti    0.11986   0.40240   0.05835   0.00000  Uiso   1.00
Ti2    Ti    0.11986   0.40240   0.19687   0.00000  Uiso   1.00
Ti3    Ti    0.11986   0.40240   0.33450   0.00000  Uiso   1.00
Ti4    Ti    0.11986   0.40240   0.47025   0.00000  Uiso   1.00
Ti5    Ti    0.24486   0.15240   0.00000   0.00000  Uiso   1.00
Ti6    Ti    0.24486   0.15240   0.14109   0.00000  Uiso   1.00
Ti7    Ti    0.24486   0.15240   0.28437   0.00000  Uiso   1.00
Ti8    Ti    0.24486   0.15240   0.43288   0.00000  Uiso   1.00
Ti9    Ti    0.36986   0.40240   0.05835   0.00000  Uiso   1.00
Ti10   Ti    0.36986   0.40240   0.19687   0.00000  Uiso   1.00
Ti11   Ti    0.36986   0.40240   0.33450   0.00000  Uiso   1.00
Ti12   Ti    0.36986   0.40240   0.47025   0.00000  Uiso   1.00
Ti13   Ti    0.49486   0.15240   0.00000   0.00000  Uiso   1.00
Ti14   Ti    0.49486   0.15240   0.14109   0.00000  Uiso   1.00
Ti15   Ti    0.49486   0.15240   0.28437   0.00000  Uiso   1.00
Ti16   Ti    0.49486   0.15240   0.43288   0.00000  Uiso   1.00
Ti17   Ti    0.11986   0.90240   0.05835   0.00000  Uiso   1.00
Ti18   Ti    0.11986   0.90240   0.19687   0.00000  Uiso   1.00
Ti19   Ti    0.11986   0.90240   0.33450   0.00000  Uiso   1.00
Ti20   Ti    0.11986   0.90240   0.47025   0.00000  Uiso   1.00
Ti21   Ti    0.24486   0.65240   0.00000   0.00000  Uiso   1.00
Ti22   Ti    0.24486   0.65240   0.14109   0.00000  Uiso   1.00
Ti23   Ti    0.24486   0.65240   0.28437   0.00000  Uiso   1.00
Ti24   Ti    0.24486   0.65240   0.43288   0.00000  Uiso   1.00
Ti25   Ti    0.36986   0.90240   0.05835   0.00000  Uiso   1.00
Ti26   Ti    0.36986   0.90240   0.19687   0.00000  Uiso   1.00
Ti27   Ti    0.36986   0.90240   0.33450   0.00000  Uiso   1.00
Ti28   Ti    0.36986   0.90240   0.47025   0.00000  Uiso   1.00
Ti29   Ti    0.49486   0.65240   0.00000   0.00000  Uiso   1.00
Ti30   Ti    0.49486   0.65240   0.14109   0.00000  Uiso   1.00
Ti31   Ti    0.49486   0.65240   0.28437   0.00000  Uiso   1.00
Ti32   Ti    0.49486   0.65240   0.43288   0.00000  Uiso   1.00
Ti33   Ti    0.61986   0.40240   0.05835   0.00000  Uiso   1.00
Ti34   Ti    0.61986   0.40240   0.19687   0.00000  Uiso   1.00
Ti35   Ti    0.61986   0.40240   0.33450   0.00000  Uiso   1.00
Ti36   Ti    0.61986   0.40240   0.47025   0.00000  Uiso   1.00
Ti37   Ti    0.74486   0.15240   0.00000   0.00000  Uiso   1.00
Ti38   Ti    0.74486   0.15240   0.14109   0.00000  Uiso   1.00
Ti39   Ti    0.74486   0.15240   0.28437   0.00000  Uiso   1.00
Ti40   Ti    0.74486   0.15240   0.43288   0.00000  Uiso   1.00
Ti41   Ti    0.86986   0.40240   0.05835   0.00000  Uiso   1.00
Ti42   Ti    0.86986   0.40240   0.19687   0.00000  Uiso   1.00
Ti43   Ti    0.86986   0.40240   0.33450   0.00000  Uiso   1.00
Ti44   Ti    0.86986   0.40240   0.47025   0.00000  Uiso   1.00
Ti45   Ti    0.99486   0.15240   0.00000   0.00000  Uiso   1.00
Ti46   Ti    0.99486   0.15240   0.14109   0.00000  Uiso   1.00
Ti47   Ti    0.99486   0.15240   0.28437   0.00000  Uiso   1.00
Ti48   Ti    0.99486   0.15240   0.43288   0.00000  Uiso   1.00
Ti49   Ti    0.61986   0.90240   0.05835   0.00000  Uiso   1.00
Ti50   Ti    0.61986   0.90240   0.19687   0.00000  Uiso   1.00
Ti51   Ti    0.61986   0.90240   0.33450   0.00000  Uiso   1.00
Ti52   Ti    0.61986   0.90240   0.47025   0.00000  Uiso   1.00
Ti53   Ti    0.74486   0.65240   0.00000   0.00000  Uiso   1.00
Ti54   Ti    0.74486   0.65240   0.14109   0.00000  Uiso   1.00
Ti55   Ti    0.74486   0.65240   0.28437   0.00000  Uiso   1.00
Ti56   Ti    0.74486   0.65240   0.43288   0.00000  Uiso   1.00
Ti57   Ti    0.86986   0.90240   0.05835   0.00000  Uiso   1.00
Ti58   Ti    0.86986   0.90240   0.19687   0.00000  Uiso   1.00
Ti59   Ti    0.86986   0.90240   0.33450   0.00000  Uiso   1.00
Ti60   Ti    0.86986   0.90240   0.47025   0.00000  Uiso   1.00
Ti61   Ti    0.99486   0.65240   0.00000   0.00000  Uiso   1.00
Ti62   Ti    0.99486   0.65240   0.14109   0.00000  Uiso   1.00
Ti63   Ti    0.99486   0.65240   0.28437   0.00000  Uiso   1.00
Ti64   Ti    0.99486   0.65240   0.43288   0.00000  Uiso   1.00
O1     O     0.19606   0.05480   0.05835   0.00000  Uiso   1.00
O2     O     0.19585   0.05403   0.20461   0.00000  Uiso   1.00
O3     O     0.19522   0.05266   0.34670   0.00000  Uiso   1.00
O4     O     0.19144   0.04520   0.48956   0.00000  Uiso   1.00
O5     O     0.04366   0.25000   0.05835   0.00000  Uiso   1.00
O6     O     0.04387   0.25077   0.20461   0.00000  Uiso   1.00
O7     O     0.04450   0.25214   0.34670   0.00000  Uiso   1.00
O8     O     0.04828   0.25959   0.48956   0.00000  Uiso   1.00
O9     O     0.16866   0.30480   0.00000   0.00000  Uiso   1.00
O10    O     0.16974   0.30241   0.13538   0.00000  Uiso   1.00
O11    O     0.16929   0.30311   0.27383   0.00000  Uiso   1.00
O12    O     0.17040   0.30085   0.41412   0.00000  Uiso   1.00
O13    O     0.07106   0.00000   0.00000   0.00000  Uiso   1.00
O14    O     0.06998   0.00239   0.13538   0.00000  Uiso   1.00
O15    O     0.07043   0.00169   0.27383   0.00000  Uiso   1.00
O16    O     0.06932   0.00395   0.41412   0.00000  Uiso   1.00
O17    O     0.44606   0.05480   0.05835   0.00000  Uiso   1.00
O18    O     0.44585   0.05403   0.20461   0.00000  Uiso   1.00
O19    O     0.44522   0.05266   0.34670   0.00000  Uiso   1.00
O20    O     0.44143   0.04520   0.48956   0.00000  Uiso   1.00
O21    O     0.29366   0.25000   0.05835   0.00000  Uiso   1.00
O22    O     0.29387   0.25077   0.20461   0.00000  Uiso   1.00
O23    O     0.29450   0.25214   0.34670   0.00000  Uiso   1.00
O24    O     0.29829   0.25959   0.48956   0.00000  Uiso   1.00
O25    O     0.41866   0.30480   0.00000   0.00000  Uiso   1.00
O26    O     0.41974   0.30241   0.13538   0.00000  Uiso   1.00
O27    O     0.41929   0.30311   0.27383   0.00000  Uiso   1.00
O28    O     0.42040   0.30085   0.41412   0.00000  Uiso   1.00
O29    O     0.32106   0.00000   0.00000   0.00000  Uiso   1.00
O30    O     0.31998   0.00239   0.13538   0.00000  Uiso   1.00
O31    O     0.32043   0.00169   0.27383   0.00000  Uiso   1.00
O32    O     0.31932   0.00395   0.41412   0.00000  Uiso   1.00
O33    O     0.19606   0.55480   0.05835   0.00000  Uiso   1.00
O34    O     0.19585   0.55403   0.20461   0.00000  Uiso   1.00
O35    O     0.19522   0.55266   0.34670   0.00000  Uiso   1.00
O36    O     0.19144   0.54520   0.48956   0.00000  Uiso   1.00
O37    O     0.04366   0.75000   0.05835   0.00000  Uiso   1.00
O38    O     0.04387   0.75077   0.20461   0.00000  Uiso   1.00
O39    O     0.04450   0.75214   0.34670   0.00000  Uiso   1.00
O40    O     0.04828   0.75959   0.48956   0.00000  Uiso   1.00
O41    O     0.16866   0.80480   0.00000   0.00000  Uiso   1.00
O42    O     0.16974   0.80241   0.13538   0.00000  Uiso   1.00
O43    O     0.16929   0.80311   0.27383   0.00000  Uiso   1.00
O44    O     0.17040   0.80085   0.41412   0.00000  Uiso   1.00
O45    O     0.07106   0.50000   0.00000   0.00000  Uiso   1.00
O46    O     0.06998   0.50239   0.13538   0.00000  Uiso   1.00
O47    O     0.07043   0.50169   0.27383   0.00000  Uiso   1.00
O48    O     0.06932   0.50395   0.41412   0.00000  Uiso   1.00
O49    O     0.44606   0.55480   0.05835   0.00000  Uiso   1.00
O50    O     0.44585   0.55403   0.20461   0.00000  Uiso   1.00
O51    O     0.44522   0.55266   0.34670   0.00000  Uiso   1.00
O52    O     0.44143   0.54520   0.48956   0.00000  Uiso   1.00
O53    O     0.29366   0.75000   0.05835   0.00000  Uiso   1.00
O54    O     0.29387   0.75077   0.20461   0.00000  Uiso   1.00
O55    O     0.29450   0.75214   0.34670   0.00000  Uiso   1.00
O56    O     0.29829   0.75959   0.48956   0.00000  Uiso   1.00
O57    O     0.41866   0.80480   0.00000   0.00000  Uiso   1.00
O58    O     0.41974   0.80241   0.13538   0.00000  Uiso   1.00
O59    O     0.41929   0.80311   0.27383   0.00000  Uiso   1.00
O60    O     0.42040   0.80085   0.41412   0.00000  Uiso   1.00
O61    O     0.32106   0.50000   0.00000   0.00000  Uiso   1.00
O62    O     0.31998   0.50239   0.13538   0.00000  Uiso   1.00
O63    O     0.32043   0.50169   0.27383   0.00000  Uiso   1.00
O64    O     0.31932   0.50395   0.41412   0.00000  Uiso   1.00
O65    O     0.69606   0.05480   0.05835   0.00000  Uiso   1.00
O66    O     0.69585   0.05403   0.20461   0.00000  Uiso   1.00
O67    O     0.69522   0.05266   0.34670   0.00000  Uiso   1.00
O68    O     0.69144   0.04520   0.48956   0.00000  Uiso   1.00
O69    O     0.54366   0.25000   0.05835   0.00000  Uiso   1.00
O70    O     0.54387   0.25077   0.20461   0.00000  Uiso   1.00
O71    O     0.54450   0.25214   0.34670   0.00000  Uiso   1.00
O72    O     0.54829   0.25959   0.48956   0.00000  Uiso   1.00
O73    O     0.66866   0.30480   0.00000   0.00000  Uiso   1.00
O74    O     0.66974   0.30241   0.13538   0.00000  Uiso   1.00
O75    O     0.66929   0.30311   0.27383   0.00000  Uiso   1.00
O76    O     0.67040   0.30085   0.41412   0.00000  Uiso   1.00
O77    O     0.57106   0.00000   0.00000   0.00000  Uiso   1.00
O78    O     0.56998   0.00239   0.13538   0.00000  Uiso   1.00
O79    O     0.57043   0.00169   0.27383   0.00000  Uiso   1.00
O80    O     0.56932   0.00395   0.41412   0.00000  Uiso   1.00
O81    O     0.94606   0.05480   0.05835   0.00000  Uiso   1.00
O82    O     0.94585   0.05403   0.20461   0.00000  Uiso   1.00
O83    O     0.94522   0.05266   0.34670   0.00000  Uiso   1.00
O84    O     0.94144   0.04520   0.48956   0.00000  Uiso   1.00
O85    O     0.79366   0.25000   0.05835   0.00000  Uiso   1.00
O86    O     0.79387   0.25077   0.20461   0.00000  Uiso   1.00
O87    O     0.79450   0.25214   0.34670   0.00000  Uiso   1.00
O88    O     0.79829   0.25959   0.48956   0.00000  Uiso   1.00
O89    O     0.91866   0.30480   0.00000   0.00000  Uiso   1.00
O90    O     0.91974   0.30241   0.13538   0.00000  Uiso   1.00
O91    O     0.91929   0.30311   0.27383   0.00000  Uiso   1.00
O92    O     0.92040   0.30085   0.41412   0.00000  Uiso   1.00
O93    O     0.82106   0.00000   0.00000   0.00000  Uiso   1.00
O94    O     0.81998   0.00239   0.13538   0.00000  Uiso   1.00
O95    O     0.82043   0.00169   0.27383   0.00000  Uiso   1.00
O96    O     0.81932   0.00395   0.41412   0.00000  Uiso   1.00
O97    O     0.69606   0.55480   0.05835   0.00000  Uiso   1.00
O98    O     0.69585   0.55403   0.20461   0.00000  Uiso   1.00
O99    O     0.69522   0.55266   0.34670   0.00000  Uiso   1.00
O100   O     0.69144   0.54521   0.48956   0.00000  Uiso   1.00
O101   O     0.54366   0.75000   0.05835   0.00000  Uiso   1.00
O102   O     0.54387   0.75077   0.20461   0.00000  Uiso   1.00
O103   O     0.54450   0.75214   0.34670   0.00000  Uiso   1.00
O104   O     0.54829   0.75960   0.48956   0.00000  Uiso   1.00
O105   O     0.66866   0.80480   0.00000   0.00000  Uiso   1.00
O106   O     0.66974   0.80241   0.13538   0.00000  Uiso   1.00
O107   O     0.66929   0.80311   0.27383   0.00000  Uiso   1.00
O108   O     0.67040   0.80085   0.41412   0.00000  Uiso   1.00
O109   O     0.57106   0.50000   0.00000   0.00000  Uiso   1.00
O110   O     0.56998   0.50239   0.13538   0.00000  Uiso   1.00
O111   O     0.57043   0.50169   0.27383   0.00000  Uiso   1.00
O112   O     0.56932   0.50395   0.41412   0.00000  Uiso   1.00
O113   O     0.94606   0.55480   0.05835   0.00000  Uiso   1.00
O114   O     0.94585   0.55403   0.20461   0.00000  Uiso   1.00
O115   O     0.94522   0.55266   0.34670   0.00000  Uiso   1.00
O116   O     0.94144   0.54521   0.48956   0.00000  Uiso   1.00
O117   O     0.79366   0.75000   0.05835   0.00000  Uiso   1.00
O118   O     0.79387   0.75077   0.20461   0.00000  Uiso   1.00
O119   O     0.79450   0.75214   0.34670   0.00000  Uiso   1.00
O120   O     0.79829   0.75960   0.48956   0.00000  Uiso   1.00
O121   O     0.91866   0.80480   0.00000   0.00000  Uiso   1.00
O122   O     0.91974   0.80241   0.13538   0.00000  Uiso   1.00
O123   O     0.91929   0.80311   0.27383   0.00000  Uiso   1.00
O124   O     0.92040   0.80085   0.41412   0.00000  Uiso   1.00
O125   O     0.82106   0.50000   0.00000   0.00000  Uiso   1.00
O126   O     0.81998   0.50239   0.13538   0.00000  Uiso   1.00
O127   O     0.82043   0.50169   0.27383   0.00000  Uiso   1.00
O128   O     0.81932   0.50395   0.41412   0.00000  Uiso   1.00
O      O     0.41703   0.51184   0.54032   0.00000  Uiso   1.00
loop_
_geom_bond_atom_site_label_1
_geom_bond_atom_site_label_2
_geom_bond_distance
_geom_bond_site_symmetry_2
_ccdc_geom_bond_type
Ti1    Ti2     2.977   .     S
Ti1    O5      1.974   .     S
Ti1    O9      1.786   .     S
Ti1    O10     2.105   .     S
Ti1    O33     1.974   .     S
Ti1    O45     1.786   .     S
Ti1    O46     2.105   .     S
Ti2    Ti3     2.958   .     S
Ti2    O6      1.974   .     S
Ti2    O10     1.854   .     S
Ti2    O11     2.098   .     S
Ti2    O34     1.974   .     S
Ti2    O46     1.854   .     S
Ti2    O47     2.098   .     S
Ti3    Ti4     2.917   .     S
Ti3    O7      1.967   .     S
Ti3    O11     1.834   .     S
Ti3    O12     2.161   .     S
Ti3    O35     1.967   .     S
Ti3    O47     1.834   .     S
Ti3    O48     2.161   .     S
Ti4    O8      1.898   .     S
Ti4    O12     1.788   .     S
Ti4    O36     1.898   .     S
Ti4    O48     1.788   .     S
Ti5    O1      1.781   .     S
Ti5    O9      1.985   .     S
Ti5    O21     1.781   .     S
Ti5    O29     1.985   .     S
Ti6    O1      2.182   .     S
Ti6    O2      1.866   .     S
Ti6    O10     1.959   .     S
Ti6    O21     2.182   .     S
Ti6    O22     1.866   .     S
Ti6    O30     1.959   .     S
Ti7    O2      2.134   .     S
Ti7    O3      1.859   .     S
Ti7    O11     1.979   .     S
Ti7    O22     2.134   .     S
Ti7    O23     1.859   .     S
Ti7    O31     1.979   .     S
Ti8    O3      2.256   .     S
Ti8    O4      1.845   .     S
Ti8    O12     1.978   .     S
Ti8    O23     2.256   .     S
Ti8    O24     1.845   .     S
Ti8    O32     1.978   .     S
Ti9    Ti10    2.977   .     S
Ti9    O21     1.974   .     S
Ti9    O25     1.786   .     S
Ti9    O26     2.105   .     S
Ti9    O49     1.974   .     S
Ti9    O61     1.786   .     S
Ti9    O62     2.105   .     S
Ti10   Ti11    2.958   .     S
Ti10   O22     1.974   .     S
Ti10   O26     1.854   .     S
Ti10   O27     2.098   .     S
Ti10   O50     1.974   .     S
Ti10   O62     1.854   .     S
Ti10   O63     2.098   .     S
Ti11   Ti12    2.917   .     S
Ti11   O23     1.967   .     S
Ti11   O27     1.834   .     S
Ti11   O28     2.161   .     S
Ti11   O51     1.967   .     S
Ti11   O63     1.834   .     S
Ti11   O64     2.161   .     S
Ti12   O24     1.898   .     S
Ti12   O28     1.788   .     S
Ti12   O52     1.898   .     S
Ti12   O64     1.788   .     S
Ti12   O       2.005   .     S
Ti13   O17     1.781   .     S
Ti13   O25     1.985   .     S
Ti13   O69     1.781   .     S
Ti13   O77     1.985   .     S
Ti14   O17     2.182   .     S
Ti14   O18     1.866   .     S
Ti14   O26     1.959   .     S
Ti14   O69     2.182   .     S
Ti14   O70     1.866   .     S
Ti14   O78     1.959   .     S
Ti15   O18     2.134   .     S
Ti15   O19     1.859   .     S
Ti15   O27     1.979   .     S
Ti15   O70     2.134   .     S
Ti15   O71     1.859   .     S
Ti15   O79     1.979   .     S
Ti16   O19     2.256   .     S
Ti16   O20     1.845   .     S
Ti16   O28     1.978   .     S
Ti16   O71     2.256   .     S
Ti16   O72     1.845   .     S
Ti16   O80     1.978   .     S
Ti17   Ti18    2.977   .     S
Ti17   O1      1.974   1_565 S
Ti17   O13     1.786   1_565 S
Ti17   O14     2.105   1_565 S
Ti17   O37     1.974   .     S
Ti17   O41     1.786   .     S
Ti17   O42     2.105   .     S
Ti18   Ti19    2.958   .     S
Ti18   O2      1.974   1_565 S
Ti18   O14     1.854   1_565 S
Ti18   O15     2.098   1_565 S
Ti18   O38     1.974   .     S
Ti18   O42     1.854   .     S
Ti18   O43     2.098   .     S
Ti19   Ti20    2.917   .     S
Ti19   O3      1.967   1_565 S
Ti19   O15     1.834   1_565 S
Ti19   O16     2.161   1_565 S
Ti19   O39     1.967   .     S
Ti19   O43     1.834   .     S
Ti19   O44     2.161   .     S
Ti20   O4      1.898   1_565 S
Ti20   O16     1.788   1_565 S
Ti20   O40     1.898   .     S
Ti20   O44     1.788   .     S
Ti21   O33     1.781   .     S
Ti21   O41     1.985   .     S
Ti21   O53     1.781   .     S
Ti21   O61     1.985   .     S
Ti22   O33     2.182   .     S
Ti22   O34     1.866   .     S
Ti22   O42     1.959   .     S
Ti22   O53     2.182   .     S
Ti22   O54     1.866   .     S
Ti22   O62     1.959   .     S
Ti23   O34     2.134   .     S
Ti23   O35     1.859   .     S
Ti23   O43     1.979   .     S
Ti23   O54     2.134   .     S
Ti23   O55     1.859   .     S
Ti23   O63     1.979   .     S
Ti24   O35     2.256   .     S
Ti24   O36     1.845   .     S
Ti24   O44     1.978   .     S
Ti24   O55     2.256   .     S
Ti24   O56     1.845   .     S
Ti24   O64     1.978   .     S
Ti25   Ti26    2.977   .     S
Ti25   O17     1.974   1_565 S
Ti25   O29     1.786   1_565 S
Ti25   O30     2.105   1_565 S
Ti25   O53     1.974   .     S
Ti25   O57     1.786   .     S
Ti25   O58     2.105   .     S
Ti26   Ti27    2.958   .     S
Ti26   O18     1.974   1_565 S
Ti26   O30     1.854   1_565 S
Ti26   O31     2.098   1_565 S
Ti26   O54     1.974   .     S
Ti26   O58     1.854   .     S
Ti26   O59     2.098   .     S
Ti27   Ti28    2.917   .     S
Ti27   O19     1.967   1_565 S
Ti27   O31     1.834   1_565 S
Ti27   O32     2.161   1_565 S
Ti27   O55     1.967   .     S
Ti27   O59     1.834   .     S
Ti27   O60     2.161   .     S
Ti28   O20     1.898   1_565 S
Ti28   O32     1.788   1_565 S
Ti28   O56     1.898   .     S
Ti28   O60     1.788   .     S
Ti29   O49     1.781   .     S
Ti29   O57     1.985   .     S
Ti29   O101    1.781   .     S
Ti29   O109    1.985   .     S
Ti30   O49     2.182   .     S
Ti30   O50     1.866   .     S
Ti30   O58     1.959   .     S
Ti30   O101    2.182   .     S
Ti30   O102    1.866   .     S
Ti30   O110    1.959   .     S
Ti31   O50     2.134   .     S
Ti31   O51     1.859   .     S
Ti31   O59     1.979   .     S
Ti31   O102    2.134   .     S
Ti31   O103    1.859   .     S
Ti31   O111    1.979   .     S
Ti32   O51     2.256   .     S
Ti32   O52     1.845   .     S
Ti32   O60     1.978   .     S
Ti32   O103    2.256   .     S
Ti32   O104    1.845   .     S
Ti32   O112    1.978   .     S
Ti33   Ti34    2.977   .     S
Ti33   O69     1.974   .     S
Ti33   O73     1.786   .     S
Ti33   O74     2.105   .     S
Ti33   O97     1.974   .     S
Ti33   O109    1.786   .     S
Ti33   O110    2.105   .     S
Ti34   Ti35    2.958   .     S
Ti34   O70     1.974   .     S
Ti34   O74     1.854   .     S
Ti34   O75     2.098   .     S
Ti34   O98     1.974   .     S
Ti34   O110    1.854   .     S
Ti34   O111    2.098   .     S
Ti35   Ti36    2.917   .     S
Ti35   O71     1.967   .     S
Ti35   O75     1.834   .     S
Ti35   O76     2.161   .     S
Ti35   O99     1.967   .     S
Ti35   O111    1.834   .     S
Ti35   O112    2.161   .     S
Ti36   O72     1.898   .     S
Ti36   O76     1.788   .     S
Ti36   O100    1.898   .     S
Ti36   O112    1.788   .     S
Ti37   O65     1.781   .     S
Ti37   O73     1.985   .     S
Ti37   O85     1.781   .     S
Ti37   O93     1.985   .     S
Ti38   O65     2.182   .     S
Ti38   O66     1.866   .     S
Ti38   O74     1.959   .     S
Ti38   O85     2.182   .     S
Ti38   O86     1.866   .     S
Ti38   O94     1.959   .     S
Ti39   O66     2.134   .     S
Ti39   O67     1.859   .     S
Ti39   O75     1.979   .     S
Ti39   O86     2.134   .     S
Ti39   O87     1.859   .     S
Ti39   O95     1.979   .     S
Ti40   O67     2.256   .     S
Ti40   O68     1.845   .     S
Ti40   O76     1.978   .     S
Ti40   O87     2.256   .     S
Ti40   O88     1.845   .     S
Ti40   O96     1.978   .     S
Ti41   Ti42    2.977   .     S
Ti41   O85     1.974   .     S
Ti41   O89     1.786   .     S
Ti41   O90     2.105   .     S
Ti41   O113    1.974   .     S
Ti41   O125    1.786   .     S
Ti41   O126    2.105   .     S
Ti42   Ti43    2.958   .     S
Ti42   O86     1.974   .     S
Ti42   O90     1.854   .     S
Ti42   O91     2.098   .     S
Ti42   O114    1.974   .     S
Ti42   O126    1.854   .     S
Ti42   O127    2.098   .     S
Ti43   Ti44    2.917   .     S
Ti43   O87     1.967   .     S
Ti43   O91     1.834   .     S
Ti43   O92     2.161   .     S
Ti43   O115    1.967   .     S
Ti43   O127    1.834   .     S
Ti43   O128    2.161   .     S
Ti44   O88     1.898   .     S
Ti44   O92     1.788   .     S
Ti44   O116    1.898   .     S
Ti44   O128    1.788   .     S
Ti45   O5      1.781   1_655 S
Ti45   O13     1.985   1_655 S
Ti45   O81     1.781   .     S
Ti45   O89     1.985   .     S
Ti46   O5      2.182   1_655 S
Ti46   O6      1.866   1_655 S
Ti46   O14     1.959   1_655 S
Ti46   O81     2.182   .     S
Ti46   O82     1.866   .     S
Ti46   O90     1.959   .     S
Ti47   O6      2.134   1_655 S
Ti47   O7      1.859   1_655 S
Ti47   O15     1.979   1_655 S
Ti47   O82     2.134   .     S
Ti47   O83     1.859   .     S
Ti47   O91     1.979   .     S
Ti48   O7      2.256   1_655 S
Ti48   O8      1.845   1_655 S
Ti48   O16     1.978   1_655 S
Ti48   O83     2.256   .     S
Ti48   O84     1.845   .     S
Ti48   O92     1.978   .     S
Ti49   Ti50    2.977   .     S
Ti49   O65     1.974   1_565 S
Ti49   O77     1.786   1_565 S
Ti49   O78     2.105   1_565 S
Ti49   O101    1.974   .     S
Ti49   O105    1.786   .     S
Ti49   O106    2.105   .     S
Ti50   Ti51    2.958   .     S
Ti50   O66     1.974   1_565 S
Ti50   O78     1.854   1_565 S
Ti50   O79     2.098   1_565 S
Ti50   O102    1.974   .     S
Ti50   O106    1.854   .     S
Ti50   O107    2.098   .     S
Ti51   Ti52    2.917   .     S
Ti51   O67     1.967   1_565 S
Ti51   O79     1.834   1_565 S
Ti51   O80     2.161   1_565 S
Ti51   O103    1.967   .     S
Ti51   O107    1.834   .     S
Ti51   O108    2.161   .     S
Ti52   O68     1.898   1_565 S
Ti52   O80     1.788   1_565 S
Ti52   O104    1.898   .     S
Ti52   O108    1.788   .     S
Ti53   O97     1.781   .     S
Ti53   O105    1.985   .     S
Ti53   O117    1.781   .     S
Ti53   O125    1.985   .     S
Ti54   O97     2.182   .     S
Ti54   O98     1.866   .     S
Ti54   O106    1.959   .     S
Ti54   O117    2.182   .     S
Ti54   O118    1.866   .     S
Ti54   O126    1.959   .     S
Ti55   O98     2.134   .     S
Ti55   O99     1.859   .     S
Ti55   O107    1.979   .     S
Ti55   O118    2.134   .     S
Ti55   O119    1.859   .     S
Ti55   O127    1.979   .     S
Ti56   O99     2.256   .     S
Ti56   O100    1.845   .     S
Ti56   O108    1.978   .     S
Ti56   O119    2.256   .     S
Ti56   O120    1.845   .     S
Ti56   O128    1.978   .     S
Ti57   Ti58    2.977   .     S
Ti57   O81     1.974   1_565 S
Ti57   O93     1.786   1_565 S
Ti57   O94     2.105   1_565 S
Ti57   O117    1.974   .     S
Ti57   O121    1.786   .     S
Ti57   O122    2.105   .     S
Ti58   Ti59    2.958   .     S
Ti58   O82     1.974   1_565 S
Ti58   O94     1.854   1_565 S
Ti58   O95     2.098   1_565 S
Ti58   O118    1.974   .     S
Ti58   O122    1.854   .     S
Ti58   O123    2.098   .     S
Ti59   Ti60    2.917   .     S
Ti59   O83     1.967   1_565 S
Ti59   O95     1.834   1_565 S
Ti59   O96     2.161   1_565 S
Ti59   O119    1.967   .     S
Ti59   O123    1.834   .     S
Ti59   O124    2.161   .     S
Ti60   O84     1.898   1_565 S
Ti60   O96     1.788   1_565 S
Ti60   O120    1.898   .     S
Ti60   O124    1.788   .     S
Ti61   O37     1.781   1_655 S
Ti61   O45     1.985   1_655 S
Ti61   O113    1.781   .     S
Ti61   O121    1.985   .     S
Ti62   O37     2.182   1_655 S
Ti62   O38     1.866   1_655 S
Ti62   O46     1.959   1_655 S
Ti62   O113    2.182   .     S
Ti62   O114    1.866   .     S
Ti62   O122    1.959   .     S
Ti63   O38     2.134   1_655 S
Ti63   O39     1.859   1_655 S
Ti63   O47     1.979   1_655 S
Ti63   O114    2.134   .     S
Ti63   O115    1.859   .     S
Ti63   O123    1.979   .     S
Ti64   O39     2.256   1_655 S
Ti64   O40     1.845   1_655 S
Ti64   O48     1.978   1_655 S
Ti64   O115    2.256   .     S
Ti64   O116    1.845   .     S
Ti64   O124    1.978   .     S
O1     Ti17    1.974   1_545 S
O2     Ti18    1.974   1_545 S
O3     Ti19    1.967   1_545 S
O4     Ti20    1.898   1_545 S
O5     Ti45    1.781   1_455 S
O5     Ti46    2.182   1_455 S
O6     Ti46    1.866   1_455 S
O6     Ti47    2.134   1_455 S
O7     Ti47    1.859   1_455 S
O7     Ti48    2.256   1_455 S
O8     Ti48    1.845   1_455 S
O13    Ti45    1.985   1_455 S
O13    Ti17    1.786   1_545 S
O14    Ti17    2.105   1_545 S
O14    Ti46    1.959   1_455 S
O14    Ti18    1.854   1_545 S
O15    Ti18    2.098   1_545 S
O15    Ti47    1.979   1_455 S
O15    Ti19    1.834   1_545 S
O16    Ti19    2.161   1_545 S
O16    Ti48    1.978   1_455 S
O16    Ti20    1.788   1_545 S
O17    Ti25    1.974   1_545 S
O18    Ti26    1.974   1_545 S
O19    Ti27    1.967   1_545 S
O20    Ti28    1.898   1_545 S
O29    Ti25    1.786   1_545 S
O30    Ti25    2.105   1_545 S
O30    Ti26    1.854   1_545 S
O31    Ti26    2.098   1_545 S
O31    Ti27    1.834   1_545 S
O32    Ti27    2.161   1_545 S
O32    Ti28    1.788   1_545 S
O37    Ti61    1.781   1_455 S
O37    Ti62    2.182   1_455 S
O38    Ti62    1.866   1_455 S
O38    Ti63    2.134   1_455 S
O39    Ti63    1.859   1_455 S
O39    Ti64    2.256   1_455 S
O40    Ti64    1.845   1_455 S
O45    Ti61    1.985   1_455 S
O46    Ti62    1.959   1_455 S
O47    Ti63    1.979   1_455 S
O48    Ti64    1.978   1_455 S
O52    O       1.218   .     D
O65    Ti49    1.974   1_545 S
O66    Ti50    1.974   1_545 S
O67    Ti51    1.967   1_545 S
O68    Ti52    1.898   1_545 S
O77    Ti49    1.786   1_545 S
O78    Ti49    2.105   1_545 S
O78    Ti50    1.854   1_545 S
O79    Ti50    2.098   1_545 S
O79    Ti51    1.834   1_545 S
O80    Ti51    2.161   1_545 S
O80    Ti52    1.788   1_545 S
O81    Ti57    1.974   1_545 S
O82    Ti58    1.974   1_545 S
O83    Ti59    1.967   1_545 S
O84    Ti60    1.898   1_545 S
O93    Ti57    1.786   1_545 S
O94    Ti57    2.105   1_545 S
O94    Ti58    1.854   1_545 S
O95    Ti58    2.098   1_545 S
O95    Ti59    1.834   1_545 S
O96    Ti59    2.161   1_545 S
O96    Ti60    1.788   1_545 S
